version 2
run AODVVANET-Simple-100-0-20150817-19:40:36-5236
attr configname AODVVANET-Simple-100
attr datetime 20150817-19:40:36
attr experiment AODVVANET-Simple-100
attr inifile omnetpp.ini
attr iterationvars ""
attr iterationvars2 $repetition=0
attr measurement ""
attr network AODVVANET
attr processid 5236
attr repetition 0
attr replication #0
attr resultdir results
attr runnumber 0
attr seedset 0

scalar AODVVANET.vehicle[0].mobility 	startTime 	8
scalar AODVVANET.vehicle[0].mobility 	totalTime 	45
scalar AODVVANET.vehicle[0].mobility 	stopTime 	46
scalar AODVVANET.vehicle[0].mobility 	minSpeed 	3.9572089270348
scalar AODVVANET.vehicle[0].mobility 	maxSpeed 	13.981399804966
scalar AODVVANET.vehicle[0].mobility 	totalDistance 	478.81311625472
scalar AODVVANET.vehicle[0].udp 	droppedPkBadChecksum:count 	0
attr interpolationmode  none
attr title  "packets dropped (checksum error), count"
scalar AODVVANET.vehicle[0].udp 	droppedPkWrongPort:count 	0
attr interpolationmode  none
attr title  "packets dropped (wrong port), count"
scalar AODVVANET.vehicle[0].udp 	passedUpPk:count 	0
attr interpolationmode  none
attr title  "packets passed up, count"
scalar AODVVANET.vehicle[0].udp 	rcvdPk:count 	0
attr interpolationmode  none
attr source  rcvdPk
attr title  "packets received, count"
scalar AODVVANET.vehicle[0].udp 	rcvdPk:sum(packetBytes) 	0
attr interpolationmode  none
attr source  rcvdPk
attr title  "packets received, sum(packetBytes)"
scalar AODVVANET.vehicle[0].udp 	sentPk:count 	1
attr interpolationmode  none
attr source  sentPk
attr title  "packets sent, count"
scalar AODVVANET.vehicle[0].udp 	sentPk:sum(packetBytes) 	8
attr interpolationmode  none
attr source  sentPk
attr title  "packets sent, sum(packetBytes)"
scalar AODVVANET.vehicle[0].networkLayer.arp 	failedARPResolution:count 	0
attr title  "ARP failed resolutions, count"
scalar AODVVANET.vehicle[0].networkLayer.arp 	completedARPResolution:count 	0
attr title  "ARP completed resolutions, count"
scalar AODVVANET.vehicle[0].networkLayer.arp 	initiatedARPResolution:count 	0
attr title  "ARP initiated resolutions, count"
scalar AODVVANET.vehicle[0].networkLayer.arp 	sentReply:count 	0
attr title  "ARP replies sent, count"
scalar AODVVANET.vehicle[0].networkLayer.arp 	sentReq:count 	0
attr title  "ARP request sent, count"
scalar AODVVANET.vehicle[0].wlan.mgmt 	dataQueueLen:max 	0
attr interpolationmode  sample-hold
attr title  "data queue length, max"
scalar AODVVANET.vehicle[0].wlan.mgmt 	dataQueueLen:timeavg 	0
attr interpolationmode  sample-hold
attr title  "data queue length, timeavg"
scalar AODVVANET.vehicle[0].wlan.mgmt 	dropPkByQueue:count 	0
attr interpolationmode  none
attr source  dropPkByQueue
attr title  "packets dropped by queue, count"
scalar AODVVANET.vehicle[0].wlan.mgmt 	dropPkByQueue:sum(packetBytes) 	0
attr interpolationmode  none
attr source  dropPkByQueue
attr title  "packets dropped by queue, sum(packetBytes)"
scalar AODVVANET.vehicle[0].wlan.mac 	"number of received packets" 	0
scalar AODVVANET.vehicle[0].wlan.mac 	"number of collisions" 	0
scalar AODVVANET.vehicle[0].wlan.mac 	"number of internal collisions" 	0
scalar AODVVANET.vehicle[0].wlan.mac 	"number of retry for AC 0" 	0
scalar AODVVANET.vehicle[0].wlan.mac 	"sent and received bits" 	2976
scalar AODVVANET.vehicle[0].wlan.mac 	"sent packet within AC 0" 	0
scalar AODVVANET.vehicle[0].wlan.mac 	"sent in TXOP " 	0
scalar AODVVANET.vehicle[0].wlan.mac 	"sentWithoutRetry AC 0" 	0
scalar AODVVANET.vehicle[0].wlan.mac 	"numGivenUp AC 0" 	0
scalar AODVVANET.vehicle[0].wlan.mac 	"numDropped AC 0" 	0
scalar AODVVANET.vehicle[0].wlan.mac 	rcvdPkFromHL:count 	6
attr interpolationmode  none
attr source  packetReceivedFromUpper
attr title  "packets received from higher layer, count"
scalar AODVVANET.vehicle[0].wlan.mac 	rcvdPkFromHL:sum(packetBytes) 	372
attr interpolationmode  none
attr source  packetReceivedFromUpper
attr title  "packets received from higher layer, sum(packetBytes)"
scalar AODVVANET.vehicle[0].wlan.mac 	passedUpPk:count 	0
attr interpolationmode  none
attr source  packetSentToUpper
attr title  "packets passed to higher layer, count"
scalar AODVVANET.vehicle[0].wlan.mac 	passedUpPk:sum(packetBytes) 	0
attr interpolationmode  none
attr source  packetSentToUpper
attr title  "packets passed to higher layer, sum(packetBytes)"
scalar AODVVANET.vehicle[0].wlan.mac 	rcvdPkFromLL:count 	0
attr interpolationmode  none
attr source  packetReceivedFromLower
attr title  "packets received from lower layer, count"
scalar AODVVANET.vehicle[0].wlan.mac 	rcvdPkFromLL:sum(packetBytes) 	0
attr interpolationmode  none
attr source  packetReceivedFromLower
attr title  "packets received from lower layer, sum(packetBytes)"
scalar AODVVANET.vehicle[0].wlan.mac 	sentDownPk:count 	6
attr interpolationmode  none
attr source  packetSentToLower
attr title  "packets sent to lower layer, count"
scalar AODVVANET.vehicle[0].wlan.mac 	sentDownPk:sum(packetBytes) 	372
attr interpolationmode  none
attr source  packetSentToLower
attr title  "packets sent to lower layer, sum(packetBytes)"
scalar AODVVANET.vehicle[0].wlan.radio 	lossRate:min 	-nan
attr interpolationmode  backward-sample-hold
attr title  "packet loss rate, min"
scalar AODVVANET.vehicle[0].wlan.radio 	lossRate:max 	-nan
attr interpolationmode  backward-sample-hold
attr title  "packet loss rate, max"
scalar AODVVANET.vehicle[0].wlan.radio 	lossRate:timeavg 	-nan
attr interpolationmode  backward-sample-hold
attr title  "packet loss rate, timeavg"
statistic AODVVANET.vehicle[0].wlan.radio 	channelNo:histogram
field count 1
field mean 0
field stddev -nan
field sum 0
field sqrsum 0
field min 0
field max 0
attr interpolationmode  sample-hold
attr title  "channel no, histogram"
bin	-INF	0
bin	-0.5	0
bin	-0.46666666666667	0
bin	-0.43333333333333	0
bin	-0.4	0
bin	-0.36666666666667	0
bin	-0.33333333333333	0
bin	-0.3	0
bin	-0.26666666666667	0
bin	-0.23333333333333	0
bin	-0.2	0
bin	-0.16666666666667	0
bin	-0.13333333333333	0
bin	-0.1	0
bin	-0.066666666666667	0
bin	-0.033333333333333	0
bin	0	1
bin	0.033333333333333	0
bin	0.066666666666667	0
bin	0.1	0
bin	0.13333333333333	0
bin	0.16666666666667	0
bin	0.2	0
bin	0.23333333333333	0
bin	0.26666666666667	0
bin	0.3	0
bin	0.33333333333333	0
bin	0.36666666666667	0
bin	0.4	0
bin	0.43333333333333	0
bin	0.46666666666667	0
bin	0.5	0
scalar AODVVANET.vehicle[0].wlan.radio 	bitrate:min 	2000000
attr interpolationmode  sample-hold
attr title  "tx bitrate, min"
attr unit  bps
scalar AODVVANET.vehicle[0].wlan.radio 	bitrate:max 	2000000
attr interpolationmode  sample-hold
attr title  "tx bitrate, max"
attr unit  bps
scalar AODVVANET.vehicle[0].wlan.radio 	bitrate:timeavg 	2000000
attr interpolationmode  sample-hold
attr title  "tx bitrate, timeavg"
attr unit  bps
scalar AODVVANET.vehicle[0].wlan.radio 	radioState:count 	13
attr interpolationmode  sample-hold
attr title  "radio state (enum), count"
scalar AODVVANET.vehicle[2].mobility 	startTime 	13
scalar AODVVANET.vehicle[2].mobility 	totalTime 	86
scalar AODVVANET.vehicle[2].mobility 	stopTime 	87
scalar AODVVANET.vehicle[2].mobility 	minSpeed 	3.9312616036609
scalar AODVVANET.vehicle[2].mobility 	maxSpeed 	13.99665325264
scalar AODVVANET.vehicle[2].mobility 	totalDistance 	981.14436203843
scalar AODVVANET.vehicle[2].udp 	droppedPkBadChecksum:count 	0
attr interpolationmode  none
attr title  "packets dropped (checksum error), count"
scalar AODVVANET.vehicle[2].udp 	droppedPkWrongPort:count 	0
attr interpolationmode  none
attr title  "packets dropped (wrong port), count"
scalar AODVVANET.vehicle[2].udp 	passedUpPk:count 	0
attr interpolationmode  none
attr title  "packets passed up, count"
scalar AODVVANET.vehicle[2].udp 	rcvdPk:count 	0
attr interpolationmode  none
attr source  rcvdPk
attr title  "packets received, count"
scalar AODVVANET.vehicle[2].udp 	rcvdPk:sum(packetBytes) 	0
attr interpolationmode  none
attr source  rcvdPk
attr title  "packets received, sum(packetBytes)"
scalar AODVVANET.vehicle[2].udp 	sentPk:count 	1
attr interpolationmode  none
attr source  sentPk
attr title  "packets sent, count"
scalar AODVVANET.vehicle[2].udp 	sentPk:sum(packetBytes) 	8
attr interpolationmode  none
attr source  sentPk
attr title  "packets sent, sum(packetBytes)"
scalar AODVVANET.vehicle[2].networkLayer.arp 	failedARPResolution:count 	0
attr title  "ARP failed resolutions, count"
scalar AODVVANET.vehicle[2].networkLayer.arp 	completedARPResolution:count 	0
attr title  "ARP completed resolutions, count"
scalar AODVVANET.vehicle[2].networkLayer.arp 	initiatedARPResolution:count 	0
attr title  "ARP initiated resolutions, count"
scalar AODVVANET.vehicle[2].networkLayer.arp 	sentReply:count 	0
attr title  "ARP replies sent, count"
scalar AODVVANET.vehicle[2].networkLayer.arp 	sentReq:count 	0
attr title  "ARP request sent, count"
scalar AODVVANET.vehicle[2].wlan.mgmt 	dataQueueLen:max 	0
attr interpolationmode  sample-hold
attr title  "data queue length, max"
scalar AODVVANET.vehicle[2].wlan.mgmt 	dataQueueLen:timeavg 	0
attr interpolationmode  sample-hold
attr title  "data queue length, timeavg"
scalar AODVVANET.vehicle[2].wlan.mgmt 	dropPkByQueue:count 	0
attr interpolationmode  none
attr source  dropPkByQueue
attr title  "packets dropped by queue, count"
scalar AODVVANET.vehicle[2].wlan.mgmt 	dropPkByQueue:sum(packetBytes) 	0
attr interpolationmode  none
attr source  dropPkByQueue
attr title  "packets dropped by queue, sum(packetBytes)"
scalar AODVVANET.vehicle[2].wlan.mac 	"number of received packets" 	0
scalar AODVVANET.vehicle[2].wlan.mac 	"number of collisions" 	0
scalar AODVVANET.vehicle[2].wlan.mac 	"number of internal collisions" 	0
scalar AODVVANET.vehicle[2].wlan.mac 	"number of retry for AC 0" 	0
scalar AODVVANET.vehicle[2].wlan.mac 	"sent and received bits" 	2976
scalar AODVVANET.vehicle[2].wlan.mac 	"sent packet within AC 0" 	0
scalar AODVVANET.vehicle[2].wlan.mac 	"sent in TXOP " 	0
scalar AODVVANET.vehicle[2].wlan.mac 	"sentWithoutRetry AC 0" 	0
scalar AODVVANET.vehicle[2].wlan.mac 	"numGivenUp AC 0" 	0
scalar AODVVANET.vehicle[2].wlan.mac 	"numDropped AC 0" 	0
scalar AODVVANET.vehicle[2].wlan.mac 	rcvdPkFromHL:count 	6
attr interpolationmode  none
attr source  packetReceivedFromUpper
attr title  "packets received from higher layer, count"
scalar AODVVANET.vehicle[2].wlan.mac 	rcvdPkFromHL:sum(packetBytes) 	372
attr interpolationmode  none
attr source  packetReceivedFromUpper
attr title  "packets received from higher layer, sum(packetBytes)"
scalar AODVVANET.vehicle[2].wlan.mac 	passedUpPk:count 	0
attr interpolationmode  none
attr source  packetSentToUpper
attr title  "packets passed to higher layer, count"
scalar AODVVANET.vehicle[2].wlan.mac 	passedUpPk:sum(packetBytes) 	0
attr interpolationmode  none
attr source  packetSentToUpper
attr title  "packets passed to higher layer, sum(packetBytes)"
scalar AODVVANET.vehicle[2].wlan.mac 	rcvdPkFromLL:count 	0
attr interpolationmode  none
attr source  packetReceivedFromLower
attr title  "packets received from lower layer, count"
scalar AODVVANET.vehicle[2].wlan.mac 	rcvdPkFromLL:sum(packetBytes) 	0
attr interpolationmode  none
attr source  packetReceivedFromLower
attr title  "packets received from lower layer, sum(packetBytes)"
scalar AODVVANET.vehicle[2].wlan.mac 	sentDownPk:count 	6
attr interpolationmode  none
attr source  packetSentToLower
attr title  "packets sent to lower layer, count"
scalar AODVVANET.vehicle[2].wlan.mac 	sentDownPk:sum(packetBytes) 	372
attr interpolationmode  none
attr source  packetSentToLower
attr title  "packets sent to lower layer, sum(packetBytes)"
scalar AODVVANET.vehicle[2].wlan.radio 	lossRate:min 	-nan
attr interpolationmode  backward-sample-hold
attr title  "packet loss rate, min"
scalar AODVVANET.vehicle[2].wlan.radio 	lossRate:max 	-nan
attr interpolationmode  backward-sample-hold
attr title  "packet loss rate, max"
scalar AODVVANET.vehicle[2].wlan.radio 	lossRate:timeavg 	-nan
attr interpolationmode  backward-sample-hold
attr title  "packet loss rate, timeavg"
statistic AODVVANET.vehicle[2].wlan.radio 	channelNo:histogram
field count 1
field mean 0
field stddev -nan
field sum 0
field sqrsum 0
field min 0
field max 0
attr interpolationmode  sample-hold
attr title  "channel no, histogram"
bin	-INF	0
bin	-0.5	0
bin	-0.46666666666667	0
bin	-0.43333333333333	0
bin	-0.4	0
bin	-0.36666666666667	0
bin	-0.33333333333333	0
bin	-0.3	0
bin	-0.26666666666667	0
bin	-0.23333333333333	0
bin	-0.2	0
bin	-0.16666666666667	0
bin	-0.13333333333333	0
bin	-0.1	0
bin	-0.066666666666667	0
bin	-0.033333333333333	0
bin	0	1
bin	0.033333333333333	0
bin	0.066666666666667	0
bin	0.1	0
bin	0.13333333333333	0
bin	0.16666666666667	0
bin	0.2	0
bin	0.23333333333333	0
bin	0.26666666666667	0
bin	0.3	0
bin	0.33333333333333	0
bin	0.36666666666667	0
bin	0.4	0
bin	0.43333333333333	0
bin	0.46666666666667	0
bin	0.5	0
scalar AODVVANET.vehicle[2].wlan.radio 	bitrate:min 	2000000
attr interpolationmode  sample-hold
attr title  "tx bitrate, min"
attr unit  bps
scalar AODVVANET.vehicle[2].wlan.radio 	bitrate:max 	2000000
attr interpolationmode  sample-hold
attr title  "tx bitrate, max"
attr unit  bps
scalar AODVVANET.vehicle[2].wlan.radio 	bitrate:timeavg 	2000000
attr interpolationmode  sample-hold
attr title  "tx bitrate, timeavg"
attr unit  bps
scalar AODVVANET.vehicle[2].wlan.radio 	radioState:count 	13
attr interpolationmode  sample-hold
attr title  "radio state (enum), count"
scalar AODVVANET.vehicle[8].mobility 	startTime 	31
scalar AODVVANET.vehicle[8].mobility 	totalTime 	109
scalar AODVVANET.vehicle[8].mobility 	stopTime 	110
scalar AODVVANET.vehicle[8].mobility 	minSpeed 	3.9558416770938
scalar AODVVANET.vehicle[8].mobility 	maxSpeed 	13.995671613319
scalar AODVVANET.vehicle[8].mobility 	totalDistance 	1048.8202342645
scalar AODVVANET.vehicle[8].udp 	droppedPkBadChecksum:count 	0
attr interpolationmode  none
attr title  "packets dropped (checksum error), count"
scalar AODVVANET.vehicle[8].udp 	droppedPkWrongPort:count 	0
attr interpolationmode  none
attr title  "packets dropped (wrong port), count"
scalar AODVVANET.vehicle[8].udp 	passedUpPk:count 	0
attr interpolationmode  none
attr title  "packets passed up, count"
scalar AODVVANET.vehicle[8].udp 	rcvdPk:count 	0
attr interpolationmode  none
attr source  rcvdPk
attr title  "packets received, count"
scalar AODVVANET.vehicle[8].udp 	rcvdPk:sum(packetBytes) 	0
attr interpolationmode  none
attr source  rcvdPk
attr title  "packets received, sum(packetBytes)"
scalar AODVVANET.vehicle[8].udp 	sentPk:count 	1
attr interpolationmode  none
attr source  sentPk
attr title  "packets sent, count"
scalar AODVVANET.vehicle[8].udp 	sentPk:sum(packetBytes) 	8
attr interpolationmode  none
attr source  sentPk
attr title  "packets sent, sum(packetBytes)"
scalar AODVVANET.vehicle[8].networkLayer.arp 	failedARPResolution:count 	0
attr title  "ARP failed resolutions, count"
scalar AODVVANET.vehicle[8].networkLayer.arp 	completedARPResolution:count 	0
attr title  "ARP completed resolutions, count"
scalar AODVVANET.vehicle[8].networkLayer.arp 	initiatedARPResolution:count 	0
attr title  "ARP initiated resolutions, count"
scalar AODVVANET.vehicle[8].networkLayer.arp 	sentReply:count 	0
attr title  "ARP replies sent, count"
scalar AODVVANET.vehicle[8].networkLayer.arp 	sentReq:count 	0
attr title  "ARP request sent, count"
scalar AODVVANET.vehicle[8].wlan.mgmt 	dataQueueLen:max 	0
attr interpolationmode  sample-hold
attr title  "data queue length, max"
scalar AODVVANET.vehicle[8].wlan.mgmt 	dataQueueLen:timeavg 	0
attr interpolationmode  sample-hold
attr title  "data queue length, timeavg"
scalar AODVVANET.vehicle[8].wlan.mgmt 	dropPkByQueue:count 	0
attr interpolationmode  none
attr source  dropPkByQueue
attr title  "packets dropped by queue, count"
scalar AODVVANET.vehicle[8].wlan.mgmt 	dropPkByQueue:sum(packetBytes) 	0
attr interpolationmode  none
attr source  dropPkByQueue
attr title  "packets dropped by queue, sum(packetBytes)"
scalar AODVVANET.vehicle[8].wlan.mac 	"number of received packets" 	0
scalar AODVVANET.vehicle[8].wlan.mac 	"number of collisions" 	0
scalar AODVVANET.vehicle[8].wlan.mac 	"number of internal collisions" 	0
scalar AODVVANET.vehicle[8].wlan.mac 	"number of retry for AC 0" 	0
scalar AODVVANET.vehicle[8].wlan.mac 	"sent and received bits" 	2976
scalar AODVVANET.vehicle[8].wlan.mac 	"sent packet within AC 0" 	0
scalar AODVVANET.vehicle[8].wlan.mac 	"sent in TXOP " 	0
scalar AODVVANET.vehicle[8].wlan.mac 	"sentWithoutRetry AC 0" 	0
scalar AODVVANET.vehicle[8].wlan.mac 	"numGivenUp AC 0" 	0
scalar AODVVANET.vehicle[8].wlan.mac 	"numDropped AC 0" 	0
scalar AODVVANET.vehicle[8].wlan.mac 	rcvdPkFromHL:count 	6
attr interpolationmode  none
attr source  packetReceivedFromUpper
attr title  "packets received from higher layer, count"
scalar AODVVANET.vehicle[8].wlan.mac 	rcvdPkFromHL:sum(packetBytes) 	372
attr interpolationmode  none
attr source  packetReceivedFromUpper
attr title  "packets received from higher layer, sum(packetBytes)"
scalar AODVVANET.vehicle[8].wlan.mac 	passedUpPk:count 	0
attr interpolationmode  none
attr source  packetSentToUpper
attr title  "packets passed to higher layer, count"
scalar AODVVANET.vehicle[8].wlan.mac 	passedUpPk:sum(packetBytes) 	0
attr interpolationmode  none
attr source  packetSentToUpper
attr title  "packets passed to higher layer, sum(packetBytes)"
scalar AODVVANET.vehicle[8].wlan.mac 	rcvdPkFromLL:count 	0
attr interpolationmode  none
attr source  packetReceivedFromLower
attr title  "packets received from lower layer, count"
scalar AODVVANET.vehicle[8].wlan.mac 	rcvdPkFromLL:sum(packetBytes) 	0
attr interpolationmode  none
attr source  packetReceivedFromLower
attr title  "packets received from lower layer, sum(packetBytes)"
scalar AODVVANET.vehicle[8].wlan.mac 	sentDownPk:count 	6
attr interpolationmode  none
attr source  packetSentToLower
attr title  "packets sent to lower layer, count"
scalar AODVVANET.vehicle[8].wlan.mac 	sentDownPk:sum(packetBytes) 	372
attr interpolationmode  none
attr source  packetSentToLower
attr title  "packets sent to lower layer, sum(packetBytes)"
scalar AODVVANET.vehicle[8].wlan.radio 	lossRate:min 	-nan
attr interpolationmode  backward-sample-hold
attr title  "packet loss rate, min"
scalar AODVVANET.vehicle[8].wlan.radio 	lossRate:max 	-nan
attr interpolationmode  backward-sample-hold
attr title  "packet loss rate, max"
scalar AODVVANET.vehicle[8].wlan.radio 	lossRate:timeavg 	-nan
attr interpolationmode  backward-sample-hold
attr title  "packet loss rate, timeavg"
statistic AODVVANET.vehicle[8].wlan.radio 	channelNo:histogram
field count 1
field mean 0
field stddev -nan
field sum 0
field sqrsum 0
field min 0
field max 0
attr interpolationmode  sample-hold
attr title  "channel no, histogram"
bin	-INF	0
bin	-0.5	0
bin	-0.46666666666667	0
bin	-0.43333333333333	0
bin	-0.4	0
bin	-0.36666666666667	0
bin	-0.33333333333333	0
bin	-0.3	0
bin	-0.26666666666667	0
bin	-0.23333333333333	0
bin	-0.2	0
bin	-0.16666666666667	0
bin	-0.13333333333333	0
bin	-0.1	0
bin	-0.066666666666667	0
bin	-0.033333333333333	0
bin	0	1
bin	0.033333333333333	0
bin	0.066666666666667	0
bin	0.1	0
bin	0.13333333333333	0
bin	0.16666666666667	0
bin	0.2	0
bin	0.23333333333333	0
bin	0.26666666666667	0
bin	0.3	0
bin	0.33333333333333	0
bin	0.36666666666667	0
bin	0.4	0
bin	0.43333333333333	0
bin	0.46666666666667	0
bin	0.5	0
scalar AODVVANET.vehicle[8].wlan.radio 	bitrate:min 	2000000
attr interpolationmode  sample-hold
attr title  "tx bitrate, min"
attr unit  bps
scalar AODVVANET.vehicle[8].wlan.radio 	bitrate:max 	2000000
attr interpolationmode  sample-hold
attr title  "tx bitrate, max"
attr unit  bps
scalar AODVVANET.vehicle[8].wlan.radio 	bitrate:timeavg 	2000000
attr interpolationmode  sample-hold
attr title  "tx bitrate, timeavg"
attr unit  bps
scalar AODVVANET.vehicle[8].wlan.radio 	radioState:count 	13
attr interpolationmode  sample-hold
attr title  "radio state (enum), count"
scalar AODVVANET.vehicle[9].mobility 	startTime 	35
scalar AODVVANET.vehicle[9].mobility 	totalTime 	109
scalar AODVVANET.vehicle[9].mobility 	stopTime 	110
scalar AODVVANET.vehicle[9].mobility 	minSpeed 	4.0265319740693
scalar AODVVANET.vehicle[9].mobility 	maxSpeed 	13.998842199228
scalar AODVVANET.vehicle[9].mobility 	totalDistance 	993.57597437989
scalar AODVVANET.vehicle[9].udp 	droppedPkBadChecksum:count 	0
attr interpolationmode  none
attr title  "packets dropped (checksum error), count"
scalar AODVVANET.vehicle[9].udp 	droppedPkWrongPort:count 	0
attr interpolationmode  none
attr title  "packets dropped (wrong port), count"
scalar AODVVANET.vehicle[9].udp 	passedUpPk:count 	0
attr interpolationmode  none
attr title  "packets passed up, count"
scalar AODVVANET.vehicle[9].udp 	rcvdPk:count 	0
attr interpolationmode  none
attr source  rcvdPk
attr title  "packets received, count"
scalar AODVVANET.vehicle[9].udp 	rcvdPk:sum(packetBytes) 	0
attr interpolationmode  none
attr source  rcvdPk
attr title  "packets received, sum(packetBytes)"
scalar AODVVANET.vehicle[9].udp 	sentPk:count 	1
attr interpolationmode  none
attr source  sentPk
attr title  "packets sent, count"
scalar AODVVANET.vehicle[9].udp 	sentPk:sum(packetBytes) 	8
attr interpolationmode  none
attr source  sentPk
attr title  "packets sent, sum(packetBytes)"
scalar AODVVANET.vehicle[9].networkLayer.arp 	failedARPResolution:count 	0
attr title  "ARP failed resolutions, count"
scalar AODVVANET.vehicle[9].networkLayer.arp 	completedARPResolution:count 	0
attr title  "ARP completed resolutions, count"
scalar AODVVANET.vehicle[9].networkLayer.arp 	initiatedARPResolution:count 	0
attr title  "ARP initiated resolutions, count"
scalar AODVVANET.vehicle[9].networkLayer.arp 	sentReply:count 	0
attr title  "ARP replies sent, count"
scalar AODVVANET.vehicle[9].networkLayer.arp 	sentReq:count 	0
attr title  "ARP request sent, count"
scalar AODVVANET.vehicle[9].wlan.mgmt 	dataQueueLen:max 	0
attr interpolationmode  sample-hold
attr title  "data queue length, max"
scalar AODVVANET.vehicle[9].wlan.mgmt 	dataQueueLen:timeavg 	0
attr interpolationmode  sample-hold
attr title  "data queue length, timeavg"
scalar AODVVANET.vehicle[9].wlan.mgmt 	dropPkByQueue:count 	0
attr interpolationmode  none
attr source  dropPkByQueue
attr title  "packets dropped by queue, count"
scalar AODVVANET.vehicle[9].wlan.mgmt 	dropPkByQueue:sum(packetBytes) 	0
attr interpolationmode  none
attr source  dropPkByQueue
attr title  "packets dropped by queue, sum(packetBytes)"
scalar AODVVANET.vehicle[9].wlan.mac 	"number of received packets" 	0
scalar AODVVANET.vehicle[9].wlan.mac 	"number of collisions" 	0
scalar AODVVANET.vehicle[9].wlan.mac 	"number of internal collisions" 	0
scalar AODVVANET.vehicle[9].wlan.mac 	"number of retry for AC 0" 	0
scalar AODVVANET.vehicle[9].wlan.mac 	"sent and received bits" 	2976
scalar AODVVANET.vehicle[9].wlan.mac 	"sent packet within AC 0" 	0
scalar AODVVANET.vehicle[9].wlan.mac 	"sent in TXOP " 	0
scalar AODVVANET.vehicle[9].wlan.mac 	"sentWithoutRetry AC 0" 	0
scalar AODVVANET.vehicle[9].wlan.mac 	"numGivenUp AC 0" 	0
scalar AODVVANET.vehicle[9].wlan.mac 	"numDropped AC 0" 	0
scalar AODVVANET.vehicle[9].wlan.mac 	rcvdPkFromHL:count 	6
attr interpolationmode  none
attr source  packetReceivedFromUpper
attr title  "packets received from higher layer, count"
scalar AODVVANET.vehicle[9].wlan.mac 	rcvdPkFromHL:sum(packetBytes) 	372
attr interpolationmode  none
attr source  packetReceivedFromUpper
attr title  "packets received from higher layer, sum(packetBytes)"
scalar AODVVANET.vehicle[9].wlan.mac 	passedUpPk:count 	0
attr interpolationmode  none
attr source  packetSentToUpper
attr title  "packets passed to higher layer, count"
scalar AODVVANET.vehicle[9].wlan.mac 	passedUpPk:sum(packetBytes) 	0
attr interpolationmode  none
attr source  packetSentToUpper
attr title  "packets passed to higher layer, sum(packetBytes)"
scalar AODVVANET.vehicle[9].wlan.mac 	rcvdPkFromLL:count 	0
attr interpolationmode  none
attr source  packetReceivedFromLower
attr title  "packets received from lower layer, count"
scalar AODVVANET.vehicle[9].wlan.mac 	rcvdPkFromLL:sum(packetBytes) 	0
attr interpolationmode  none
attr source  packetReceivedFromLower
attr title  "packets received from lower layer, sum(packetBytes)"
scalar AODVVANET.vehicle[9].wlan.mac 	sentDownPk:count 	6
attr interpolationmode  none
attr source  packetSentToLower
attr title  "packets sent to lower layer, count"
scalar AODVVANET.vehicle[9].wlan.mac 	sentDownPk:sum(packetBytes) 	372
attr interpolationmode  none
attr source  packetSentToLower
attr title  "packets sent to lower layer, sum(packetBytes)"
scalar AODVVANET.vehicle[9].wlan.radio 	lossRate:min 	-nan
attr interpolationmode  backward-sample-hold
attr title  "packet loss rate, min"
scalar AODVVANET.vehicle[9].wlan.radio 	lossRate:max 	-nan
attr interpolationmode  backward-sample-hold
attr title  "packet loss rate, max"
scalar AODVVANET.vehicle[9].wlan.radio 	lossRate:timeavg 	-nan
attr interpolationmode  backward-sample-hold
attr title  "packet loss rate, timeavg"
statistic AODVVANET.vehicle[9].wlan.radio 	channelNo:histogram
field count 1
field mean 0
field stddev -nan
field sum 0
field sqrsum 0
field min 0
field max 0
attr interpolationmode  sample-hold
attr title  "channel no, histogram"
bin	-INF	0
bin	-0.5	0
bin	-0.46666666666667	0
bin	-0.43333333333333	0
bin	-0.4	0
bin	-0.36666666666667	0
bin	-0.33333333333333	0
bin	-0.3	0
bin	-0.26666666666667	0
bin	-0.23333333333333	0
bin	-0.2	0
bin	-0.16666666666667	0
bin	-0.13333333333333	0
bin	-0.1	0
bin	-0.066666666666667	0
bin	-0.033333333333333	0
bin	0	1
bin	0.033333333333333	0
bin	0.066666666666667	0
bin	0.1	0
bin	0.13333333333333	0
bin	0.16666666666667	0
bin	0.2	0
bin	0.23333333333333	0
bin	0.26666666666667	0
bin	0.3	0
bin	0.33333333333333	0
bin	0.36666666666667	0
bin	0.4	0
bin	0.43333333333333	0
bin	0.46666666666667	0
bin	0.5	0
scalar AODVVANET.vehicle[9].wlan.radio 	bitrate:min 	2000000
attr interpolationmode  sample-hold
attr title  "tx bitrate, min"
attr unit  bps
scalar AODVVANET.vehicle[9].wlan.radio 	bitrate:max 	2000000
attr interpolationmode  sample-hold
attr title  "tx bitrate, max"
attr unit  bps
scalar AODVVANET.vehicle[9].wlan.radio 	bitrate:timeavg 	2000000
attr interpolationmode  sample-hold
attr title  "tx bitrate, timeavg"
attr unit  bps
scalar AODVVANET.vehicle[9].wlan.radio 	radioState:count 	13
attr interpolationmode  sample-hold
attr title  "radio state (enum), count"
scalar AODVVANET.vehicle[10].mobility 	startTime 	40
scalar AODVVANET.vehicle[10].mobility 	totalTime 	109
scalar AODVVANET.vehicle[10].mobility 	stopTime 	110
scalar AODVVANET.vehicle[10].mobility 	minSpeed 	3.8461734553984
scalar AODVVANET.vehicle[10].mobility 	maxSpeed 	13.999298311833
scalar AODVVANET.vehicle[10].mobility 	totalDistance 	923.66034736798
scalar AODVVANET.vehicle[10].udp 	droppedPkBadChecksum:count 	0
attr interpolationmode  none
attr title  "packets dropped (checksum error), count"
scalar AODVVANET.vehicle[10].udp 	droppedPkWrongPort:count 	0
attr interpolationmode  none
attr title  "packets dropped (wrong port), count"
scalar AODVVANET.vehicle[10].udp 	passedUpPk:count 	0
attr interpolationmode  none
attr title  "packets passed up, count"
scalar AODVVANET.vehicle[10].udp 	rcvdPk:count 	0
attr interpolationmode  none
attr source  rcvdPk
attr title  "packets received, count"
scalar AODVVANET.vehicle[10].udp 	rcvdPk:sum(packetBytes) 	0
attr interpolationmode  none
attr source  rcvdPk
attr title  "packets received, sum(packetBytes)"
scalar AODVVANET.vehicle[10].udp 	sentPk:count 	1
attr interpolationmode  none
attr source  sentPk
attr title  "packets sent, count"
scalar AODVVANET.vehicle[10].udp 	sentPk:sum(packetBytes) 	8
attr interpolationmode  none
attr source  sentPk
attr title  "packets sent, sum(packetBytes)"
scalar AODVVANET.vehicle[10].networkLayer.arp 	failedARPResolution:count 	0
attr title  "ARP failed resolutions, count"
scalar AODVVANET.vehicle[10].networkLayer.arp 	completedARPResolution:count 	0
attr title  "ARP completed resolutions, count"
scalar AODVVANET.vehicle[10].networkLayer.arp 	initiatedARPResolution:count 	0
attr title  "ARP initiated resolutions, count"
scalar AODVVANET.vehicle[10].networkLayer.arp 	sentReply:count 	0
attr title  "ARP replies sent, count"
scalar AODVVANET.vehicle[10].networkLayer.arp 	sentReq:count 	0
attr title  "ARP request sent, count"
scalar AODVVANET.vehicle[10].wlan.mgmt 	dataQueueLen:max 	0
attr interpolationmode  sample-hold
attr title  "data queue length, max"
scalar AODVVANET.vehicle[10].wlan.mgmt 	dataQueueLen:timeavg 	0
attr interpolationmode  sample-hold
attr title  "data queue length, timeavg"
scalar AODVVANET.vehicle[10].wlan.mgmt 	dropPkByQueue:count 	0
attr interpolationmode  none
attr source  dropPkByQueue
attr title  "packets dropped by queue, count"
scalar AODVVANET.vehicle[10].wlan.mgmt 	dropPkByQueue:sum(packetBytes) 	0
attr interpolationmode  none
attr source  dropPkByQueue
attr title  "packets dropped by queue, sum(packetBytes)"
scalar AODVVANET.vehicle[10].wlan.mac 	"number of received packets" 	0
scalar AODVVANET.vehicle[10].wlan.mac 	"number of collisions" 	0
scalar AODVVANET.vehicle[10].wlan.mac 	"number of internal collisions" 	0
scalar AODVVANET.vehicle[10].wlan.mac 	"number of retry for AC 0" 	0
scalar AODVVANET.vehicle[10].wlan.mac 	"sent and received bits" 	2976
scalar AODVVANET.vehicle[10].wlan.mac 	"sent packet within AC 0" 	0
scalar AODVVANET.vehicle[10].wlan.mac 	"sent in TXOP " 	0
scalar AODVVANET.vehicle[10].wlan.mac 	"sentWithoutRetry AC 0" 	0
scalar AODVVANET.vehicle[10].wlan.mac 	"numGivenUp AC 0" 	0
scalar AODVVANET.vehicle[10].wlan.mac 	"numDropped AC 0" 	0
scalar AODVVANET.vehicle[10].wlan.mac 	rcvdPkFromHL:count 	6
attr interpolationmode  none
attr source  packetReceivedFromUpper
attr title  "packets received from higher layer, count"
scalar AODVVANET.vehicle[10].wlan.mac 	rcvdPkFromHL:sum(packetBytes) 	372
attr interpolationmode  none
attr source  packetReceivedFromUpper
attr title  "packets received from higher layer, sum(packetBytes)"
scalar AODVVANET.vehicle[10].wlan.mac 	passedUpPk:count 	0
attr interpolationmode  none
attr source  packetSentToUpper
attr title  "packets passed to higher layer, count"
scalar AODVVANET.vehicle[10].wlan.mac 	passedUpPk:sum(packetBytes) 	0
attr interpolationmode  none
attr source  packetSentToUpper
attr title  "packets passed to higher layer, sum(packetBytes)"
scalar AODVVANET.vehicle[10].wlan.mac 	rcvdPkFromLL:count 	0
attr interpolationmode  none
attr source  packetReceivedFromLower
attr title  "packets received from lower layer, count"
scalar AODVVANET.vehicle[10].wlan.mac 	rcvdPkFromLL:sum(packetBytes) 	0
attr interpolationmode  none
attr source  packetReceivedFromLower
attr title  "packets received from lower layer, sum(packetBytes)"
scalar AODVVANET.vehicle[10].wlan.mac 	sentDownPk:count 	6
attr interpolationmode  none
attr source  packetSentToLower
attr title  "packets sent to lower layer, count"
scalar AODVVANET.vehicle[10].wlan.mac 	sentDownPk:sum(packetBytes) 	372
attr interpolationmode  none
attr source  packetSentToLower
attr title  "packets sent to lower layer, sum(packetBytes)"
scalar AODVVANET.vehicle[10].wlan.radio 	lossRate:min 	-nan
attr interpolationmode  backward-sample-hold
attr title  "packet loss rate, min"
scalar AODVVANET.vehicle[10].wlan.radio 	lossRate:max 	-nan
attr interpolationmode  backward-sample-hold
attr title  "packet loss rate, max"
scalar AODVVANET.vehicle[10].wlan.radio 	lossRate:timeavg 	-nan
attr interpolationmode  backward-sample-hold
attr title  "packet loss rate, timeavg"
statistic AODVVANET.vehicle[10].wlan.radio 	channelNo:histogram
field count 1
field mean 0
field stddev -nan
field sum 0
field sqrsum 0
field min 0
field max 0
attr interpolationmode  sample-hold
attr title  "channel no, histogram"
bin	-INF	0
bin	-0.5	0
bin	-0.46666666666667	0
bin	-0.43333333333333	0
bin	-0.4	0
bin	-0.36666666666667	0
bin	-0.33333333333333	0
bin	-0.3	0
bin	-0.26666666666667	0
bin	-0.23333333333333	0
bin	-0.2	0
bin	-0.16666666666667	0
bin	-0.13333333333333	0
bin	-0.1	0
bin	-0.066666666666667	0
bin	-0.033333333333333	0
bin	0	1
bin	0.033333333333333	0
bin	0.066666666666667	0
bin	0.1	0
bin	0.13333333333333	0
bin	0.16666666666667	0
bin	0.2	0
bin	0.23333333333333	0
bin	0.26666666666667	0
bin	0.3	0
bin	0.33333333333333	0
bin	0.36666666666667	0
bin	0.4	0
bin	0.43333333333333	0
bin	0.46666666666667	0
bin	0.5	0
scalar AODVVANET.vehicle[10].wlan.radio 	bitrate:min 	2000000
attr interpolationmode  sample-hold
attr title  "tx bitrate, min"
attr unit  bps
scalar AODVVANET.vehicle[10].wlan.radio 	bitrate:max 	2000000
attr interpolationmode  sample-hold
attr title  "tx bitrate, max"
attr unit  bps
scalar AODVVANET.vehicle[10].wlan.radio 	bitrate:timeavg 	2000000
attr interpolationmode  sample-hold
attr title  "tx bitrate, timeavg"
attr unit  bps
scalar AODVVANET.vehicle[10].wlan.radio 	radioState:count 	13
attr interpolationmode  sample-hold
attr title  "radio state (enum), count"
scalar AODVVANET.vehicle[11].mobility 	startTime 	45
scalar AODVVANET.vehicle[11].mobility 	totalTime 	109
scalar AODVVANET.vehicle[11].mobility 	stopTime 	110
scalar AODVVANET.vehicle[11].mobility 	minSpeed 	4.2750514588305
scalar AODVVANET.vehicle[11].mobility 	maxSpeed 	13.999341939832
scalar AODVVANET.vehicle[11].mobility 	totalDistance 	853.9823499031
scalar AODVVANET.vehicle[11].udp 	droppedPkBadChecksum:count 	0
attr interpolationmode  none
attr title  "packets dropped (checksum error), count"
scalar AODVVANET.vehicle[11].udp 	droppedPkWrongPort:count 	0
attr interpolationmode  none
attr title  "packets dropped (wrong port), count"
scalar AODVVANET.vehicle[11].udp 	passedUpPk:count 	0
attr interpolationmode  none
attr title  "packets passed up, count"
scalar AODVVANET.vehicle[11].udp 	rcvdPk:count 	0
attr interpolationmode  none
attr source  rcvdPk
attr title  "packets received, count"
scalar AODVVANET.vehicle[11].udp 	rcvdPk:sum(packetBytes) 	0
attr interpolationmode  none
attr source  rcvdPk
attr title  "packets received, sum(packetBytes)"
scalar AODVVANET.vehicle[11].udp 	sentPk:count 	1
attr interpolationmode  none
attr source  sentPk
attr title  "packets sent, count"
scalar AODVVANET.vehicle[11].udp 	sentPk:sum(packetBytes) 	8
attr interpolationmode  none
attr source  sentPk
attr title  "packets sent, sum(packetBytes)"
scalar AODVVANET.vehicle[11].networkLayer.arp 	failedARPResolution:count 	0
attr title  "ARP failed resolutions, count"
scalar AODVVANET.vehicle[11].networkLayer.arp 	completedARPResolution:count 	0
attr title  "ARP completed resolutions, count"
scalar AODVVANET.vehicle[11].networkLayer.arp 	initiatedARPResolution:count 	0
attr title  "ARP initiated resolutions, count"
scalar AODVVANET.vehicle[11].networkLayer.arp 	sentReply:count 	0
attr title  "ARP replies sent, count"
scalar AODVVANET.vehicle[11].networkLayer.arp 	sentReq:count 	0
attr title  "ARP request sent, count"
scalar AODVVANET.vehicle[11].wlan.mgmt 	dataQueueLen:max 	0
attr interpolationmode  sample-hold
attr title  "data queue length, max"
scalar AODVVANET.vehicle[11].wlan.mgmt 	dataQueueLen:timeavg 	0
attr interpolationmode  sample-hold
attr title  "data queue length, timeavg"
scalar AODVVANET.vehicle[11].wlan.mgmt 	dropPkByQueue:count 	0
attr interpolationmode  none
attr source  dropPkByQueue
attr title  "packets dropped by queue, count"
scalar AODVVANET.vehicle[11].wlan.mgmt 	dropPkByQueue:sum(packetBytes) 	0
attr interpolationmode  none
attr source  dropPkByQueue
attr title  "packets dropped by queue, sum(packetBytes)"
scalar AODVVANET.vehicle[11].wlan.mac 	"number of received packets" 	0
scalar AODVVANET.vehicle[11].wlan.mac 	"number of collisions" 	0
scalar AODVVANET.vehicle[11].wlan.mac 	"number of internal collisions" 	0
scalar AODVVANET.vehicle[11].wlan.mac 	"number of retry for AC 0" 	0
scalar AODVVANET.vehicle[11].wlan.mac 	"sent and received bits" 	2976
scalar AODVVANET.vehicle[11].wlan.mac 	"sent packet within AC 0" 	0
scalar AODVVANET.vehicle[11].wlan.mac 	"sent in TXOP " 	0
scalar AODVVANET.vehicle[11].wlan.mac 	"sentWithoutRetry AC 0" 	0
scalar AODVVANET.vehicle[11].wlan.mac 	"numGivenUp AC 0" 	0
scalar AODVVANET.vehicle[11].wlan.mac 	"numDropped AC 0" 	0
scalar AODVVANET.vehicle[11].wlan.mac 	rcvdPkFromHL:count 	6
attr interpolationmode  none
attr source  packetReceivedFromUpper
attr title  "packets received from higher layer, count"
scalar AODVVANET.vehicle[11].wlan.mac 	rcvdPkFromHL:sum(packetBytes) 	372
attr interpolationmode  none
attr source  packetReceivedFromUpper
attr title  "packets received from higher layer, sum(packetBytes)"
scalar AODVVANET.vehicle[11].wlan.mac 	passedUpPk:count 	0
attr interpolationmode  none
attr source  packetSentToUpper
attr title  "packets passed to higher layer, count"
scalar AODVVANET.vehicle[11].wlan.mac 	passedUpPk:sum(packetBytes) 	0
attr interpolationmode  none
attr source  packetSentToUpper
attr title  "packets passed to higher layer, sum(packetBytes)"
scalar AODVVANET.vehicle[11].wlan.mac 	rcvdPkFromLL:count 	0
attr interpolationmode  none
attr source  packetReceivedFromLower
attr title  "packets received from lower layer, count"
scalar AODVVANET.vehicle[11].wlan.mac 	rcvdPkFromLL:sum(packetBytes) 	0
attr interpolationmode  none
attr source  packetReceivedFromLower
attr title  "packets received from lower layer, sum(packetBytes)"
scalar AODVVANET.vehicle[11].wlan.mac 	sentDownPk:count 	6
attr interpolationmode  none
attr source  packetSentToLower
attr title  "packets sent to lower layer, count"
scalar AODVVANET.vehicle[11].wlan.mac 	sentDownPk:sum(packetBytes) 	372
attr interpolationmode  none
attr source  packetSentToLower
attr title  "packets sent to lower layer, sum(packetBytes)"
scalar AODVVANET.vehicle[11].wlan.radio 	lossRate:min 	-nan
attr interpolationmode  backward-sample-hold
attr title  "packet loss rate, min"
scalar AODVVANET.vehicle[11].wlan.radio 	lossRate:max 	-nan
attr interpolationmode  backward-sample-hold
attr title  "packet loss rate, max"
scalar AODVVANET.vehicle[11].wlan.radio 	lossRate:timeavg 	-nan
attr interpolationmode  backward-sample-hold
attr title  "packet loss rate, timeavg"
statistic AODVVANET.vehicle[11].wlan.radio 	channelNo:histogram
field count 1
field mean 0
field stddev -nan
field sum 0
field sqrsum 0
field min 0
field max 0
attr interpolationmode  sample-hold
attr title  "channel no, histogram"
bin	-INF	0
bin	-0.5	0
bin	-0.46666666666667	0
bin	-0.43333333333333	0
bin	-0.4	0
bin	-0.36666666666667	0
bin	-0.33333333333333	0
bin	-0.3	0
bin	-0.26666666666667	0
bin	-0.23333333333333	0
bin	-0.2	0
bin	-0.16666666666667	0
bin	-0.13333333333333	0
bin	-0.1	0
bin	-0.066666666666667	0
bin	-0.033333333333333	0
bin	0	1
bin	0.033333333333333	0
bin	0.066666666666667	0
bin	0.1	0
bin	0.13333333333333	0
bin	0.16666666666667	0
bin	0.2	0
bin	0.23333333333333	0
bin	0.26666666666667	0
bin	0.3	0
bin	0.33333333333333	0
bin	0.36666666666667	0
bin	0.4	0
bin	0.43333333333333	0
bin	0.46666666666667	0
bin	0.5	0
scalar AODVVANET.vehicle[11].wlan.radio 	bitrate:min 	2000000
attr interpolationmode  sample-hold
attr title  "tx bitrate, min"
attr unit  bps
scalar AODVVANET.vehicle[11].wlan.radio 	bitrate:max 	2000000
attr interpolationmode  sample-hold
attr title  "tx bitrate, max"
attr unit  bps
scalar AODVVANET.vehicle[11].wlan.radio 	bitrate:timeavg 	2000000
attr interpolationmode  sample-hold
attr title  "tx bitrate, timeavg"
attr unit  bps
scalar AODVVANET.vehicle[11].wlan.radio 	radioState:count 	13
attr interpolationmode  sample-hold
attr title  "radio state (enum), count"
scalar AODVVANET.vehicle[12].mobility 	startTime 	48
scalar AODVVANET.vehicle[12].mobility 	totalTime 	109
scalar AODVVANET.vehicle[12].mobility 	stopTime 	110
scalar AODVVANET.vehicle[12].mobility 	minSpeed 	3.9313345573916
scalar AODVVANET.vehicle[12].mobility 	maxSpeed 	13.999173701964
scalar AODVVANET.vehicle[12].mobility 	totalDistance 	814.79218278986
scalar AODVVANET.vehicle[12].udp 	droppedPkBadChecksum:count 	0
attr interpolationmode  none
attr title  "packets dropped (checksum error), count"
scalar AODVVANET.vehicle[12].udp 	droppedPkWrongPort:count 	0
attr interpolationmode  none
attr title  "packets dropped (wrong port), count"
scalar AODVVANET.vehicle[12].udp 	passedUpPk:count 	0
attr interpolationmode  none
attr title  "packets passed up, count"
scalar AODVVANET.vehicle[12].udp 	rcvdPk:count 	0
attr interpolationmode  none
attr source  rcvdPk
attr title  "packets received, count"
scalar AODVVANET.vehicle[12].udp 	rcvdPk:sum(packetBytes) 	0
attr interpolationmode  none
attr source  rcvdPk
attr title  "packets received, sum(packetBytes)"
scalar AODVVANET.vehicle[12].udp 	sentPk:count 	1
attr interpolationmode  none
attr source  sentPk
attr title  "packets sent, count"
scalar AODVVANET.vehicle[12].udp 	sentPk:sum(packetBytes) 	8
attr interpolationmode  none
attr source  sentPk
attr title  "packets sent, sum(packetBytes)"
scalar AODVVANET.vehicle[12].networkLayer.arp 	failedARPResolution:count 	0
attr title  "ARP failed resolutions, count"
scalar AODVVANET.vehicle[12].networkLayer.arp 	completedARPResolution:count 	0
attr title  "ARP completed resolutions, count"
scalar AODVVANET.vehicle[12].networkLayer.arp 	initiatedARPResolution:count 	0
attr title  "ARP initiated resolutions, count"
scalar AODVVANET.vehicle[12].networkLayer.arp 	sentReply:count 	0
attr title  "ARP replies sent, count"
scalar AODVVANET.vehicle[12].networkLayer.arp 	sentReq:count 	0
attr title  "ARP request sent, count"
scalar AODVVANET.vehicle[12].wlan.mgmt 	dataQueueLen:max 	0
attr interpolationmode  sample-hold
attr title  "data queue length, max"
scalar AODVVANET.vehicle[12].wlan.mgmt 	dataQueueLen:timeavg 	0
attr interpolationmode  sample-hold
attr title  "data queue length, timeavg"
scalar AODVVANET.vehicle[12].wlan.mgmt 	dropPkByQueue:count 	0
attr interpolationmode  none
attr source  dropPkByQueue
attr title  "packets dropped by queue, count"
scalar AODVVANET.vehicle[12].wlan.mgmt 	dropPkByQueue:sum(packetBytes) 	0
attr interpolationmode  none
attr source  dropPkByQueue
attr title  "packets dropped by queue, sum(packetBytes)"
scalar AODVVANET.vehicle[12].wlan.mac 	"number of received packets" 	0
scalar AODVVANET.vehicle[12].wlan.mac 	"number of collisions" 	0
scalar AODVVANET.vehicle[12].wlan.mac 	"number of internal collisions" 	0
scalar AODVVANET.vehicle[12].wlan.mac 	"number of retry for AC 0" 	0
scalar AODVVANET.vehicle[12].wlan.mac 	"sent and received bits" 	2976
scalar AODVVANET.vehicle[12].wlan.mac 	"sent packet within AC 0" 	0
scalar AODVVANET.vehicle[12].wlan.mac 	"sent in TXOP " 	0
scalar AODVVANET.vehicle[12].wlan.mac 	"sentWithoutRetry AC 0" 	0
scalar AODVVANET.vehicle[12].wlan.mac 	"numGivenUp AC 0" 	0
scalar AODVVANET.vehicle[12].wlan.mac 	"numDropped AC 0" 	0
scalar AODVVANET.vehicle[12].wlan.mac 	rcvdPkFromHL:count 	6
attr interpolationmode  none
attr source  packetReceivedFromUpper
attr title  "packets received from higher layer, count"
scalar AODVVANET.vehicle[12].wlan.mac 	rcvdPkFromHL:sum(packetBytes) 	372
attr interpolationmode  none
attr source  packetReceivedFromUpper
attr title  "packets received from higher layer, sum(packetBytes)"
scalar AODVVANET.vehicle[12].wlan.mac 	passedUpPk:count 	0
attr interpolationmode  none
attr source  packetSentToUpper
attr title  "packets passed to higher layer, count"
scalar AODVVANET.vehicle[12].wlan.mac 	passedUpPk:sum(packetBytes) 	0
attr interpolationmode  none
attr source  packetSentToUpper
attr title  "packets passed to higher layer, sum(packetBytes)"
scalar AODVVANET.vehicle[12].wlan.mac 	rcvdPkFromLL:count 	0
attr interpolationmode  none
attr source  packetReceivedFromLower
attr title  "packets received from lower layer, count"
scalar AODVVANET.vehicle[12].wlan.mac 	rcvdPkFromLL:sum(packetBytes) 	0
attr interpolationmode  none
attr source  packetReceivedFromLower
attr title  "packets received from lower layer, sum(packetBytes)"
scalar AODVVANET.vehicle[12].wlan.mac 	sentDownPk:count 	6
attr interpolationmode  none
attr source  packetSentToLower
attr title  "packets sent to lower layer, count"
scalar AODVVANET.vehicle[12].wlan.mac 	sentDownPk:sum(packetBytes) 	372
attr interpolationmode  none
attr source  packetSentToLower
attr title  "packets sent to lower layer, sum(packetBytes)"
scalar AODVVANET.vehicle[12].wlan.radio 	lossRate:min 	-nan
attr interpolationmode  backward-sample-hold
attr title  "packet loss rate, min"
scalar AODVVANET.vehicle[12].wlan.radio 	lossRate:max 	-nan
attr interpolationmode  backward-sample-hold
attr title  "packet loss rate, max"
scalar AODVVANET.vehicle[12].wlan.radio 	lossRate:timeavg 	-nan
attr interpolationmode  backward-sample-hold
attr title  "packet loss rate, timeavg"
statistic AODVVANET.vehicle[12].wlan.radio 	channelNo:histogram
field count 1
field mean 0
field stddev -nan
field sum 0
field sqrsum 0
field min 0
field max 0
attr interpolationmode  sample-hold
attr title  "channel no, histogram"
bin	-INF	0
bin	-0.5	0
bin	-0.46666666666667	0
bin	-0.43333333333333	0
bin	-0.4	0
bin	-0.36666666666667	0
bin	-0.33333333333333	0
bin	-0.3	0
bin	-0.26666666666667	0
bin	-0.23333333333333	0
bin	-0.2	0
bin	-0.16666666666667	0
bin	-0.13333333333333	0
bin	-0.1	0
bin	-0.066666666666667	0
bin	-0.033333333333333	0
bin	0	1
bin	0.033333333333333	0
bin	0.066666666666667	0
bin	0.1	0
bin	0.13333333333333	0
bin	0.16666666666667	0
bin	0.2	0
bin	0.23333333333333	0
bin	0.26666666666667	0
bin	0.3	0
bin	0.33333333333333	0
bin	0.36666666666667	0
bin	0.4	0
bin	0.43333333333333	0
bin	0.46666666666667	0
bin	0.5	0
scalar AODVVANET.vehicle[12].wlan.radio 	bitrate:min 	2000000
attr interpolationmode  sample-hold
attr title  "tx bitrate, min"
attr unit  bps
scalar AODVVANET.vehicle[12].wlan.radio 	bitrate:max 	2000000
attr interpolationmode  sample-hold
attr title  "tx bitrate, max"
attr unit  bps
scalar AODVVANET.vehicle[12].wlan.radio 	bitrate:timeavg 	2000000
attr interpolationmode  sample-hold
attr title  "tx bitrate, timeavg"
attr unit  bps
scalar AODVVANET.vehicle[12].wlan.radio 	radioState:count 	13
attr interpolationmode  sample-hold
attr title  "radio state (enum), count"
scalar AODVVANET.vehicle[13].mobility 	startTime 	49
scalar AODVVANET.vehicle[13].mobility 	totalTime 	109
scalar AODVVANET.vehicle[13].mobility 	stopTime 	110
scalar AODVVANET.vehicle[13].mobility 	minSpeed 	4.0150458438643
scalar AODVVANET.vehicle[13].mobility 	maxSpeed 	13.999997396106
scalar AODVVANET.vehicle[13].mobility 	totalDistance 	798.60994307424
scalar AODVVANET.vehicle[13].udp 	droppedPkBadChecksum:count 	0
attr interpolationmode  none
attr title  "packets dropped (checksum error), count"
scalar AODVVANET.vehicle[13].udp 	droppedPkWrongPort:count 	0
attr interpolationmode  none
attr title  "packets dropped (wrong port), count"
scalar AODVVANET.vehicle[13].udp 	passedUpPk:count 	0
attr interpolationmode  none
attr title  "packets passed up, count"
scalar AODVVANET.vehicle[13].udp 	rcvdPk:count 	0
attr interpolationmode  none
attr source  rcvdPk
attr title  "packets received, count"
scalar AODVVANET.vehicle[13].udp 	rcvdPk:sum(packetBytes) 	0
attr interpolationmode  none
attr source  rcvdPk
attr title  "packets received, sum(packetBytes)"
scalar AODVVANET.vehicle[13].udp 	sentPk:count 	1
attr interpolationmode  none
attr source  sentPk
attr title  "packets sent, count"
scalar AODVVANET.vehicle[13].udp 	sentPk:sum(packetBytes) 	8
attr interpolationmode  none
attr source  sentPk
attr title  "packets sent, sum(packetBytes)"
scalar AODVVANET.vehicle[13].networkLayer.arp 	failedARPResolution:count 	0
attr title  "ARP failed resolutions, count"
scalar AODVVANET.vehicle[13].networkLayer.arp 	completedARPResolution:count 	0
attr title  "ARP completed resolutions, count"
scalar AODVVANET.vehicle[13].networkLayer.arp 	initiatedARPResolution:count 	0
attr title  "ARP initiated resolutions, count"
scalar AODVVANET.vehicle[13].networkLayer.arp 	sentReply:count 	0
attr title  "ARP replies sent, count"
scalar AODVVANET.vehicle[13].networkLayer.arp 	sentReq:count 	0
attr title  "ARP request sent, count"
scalar AODVVANET.vehicle[13].wlan.mgmt 	dataQueueLen:max 	0
attr interpolationmode  sample-hold
attr title  "data queue length, max"
scalar AODVVANET.vehicle[13].wlan.mgmt 	dataQueueLen:timeavg 	0
attr interpolationmode  sample-hold
attr title  "data queue length, timeavg"
scalar AODVVANET.vehicle[13].wlan.mgmt 	dropPkByQueue:count 	0
attr interpolationmode  none
attr source  dropPkByQueue
attr title  "packets dropped by queue, count"
scalar AODVVANET.vehicle[13].wlan.mgmt 	dropPkByQueue:sum(packetBytes) 	0
attr interpolationmode  none
attr source  dropPkByQueue
attr title  "packets dropped by queue, sum(packetBytes)"
scalar AODVVANET.vehicle[13].wlan.mac 	"number of received packets" 	0
scalar AODVVANET.vehicle[13].wlan.mac 	"number of collisions" 	0
scalar AODVVANET.vehicle[13].wlan.mac 	"number of internal collisions" 	0
scalar AODVVANET.vehicle[13].wlan.mac 	"number of retry for AC 0" 	0
scalar AODVVANET.vehicle[13].wlan.mac 	"sent and received bits" 	2976
scalar AODVVANET.vehicle[13].wlan.mac 	"sent packet within AC 0" 	0
scalar AODVVANET.vehicle[13].wlan.mac 	"sent in TXOP " 	0
scalar AODVVANET.vehicle[13].wlan.mac 	"sentWithoutRetry AC 0" 	0
scalar AODVVANET.vehicle[13].wlan.mac 	"numGivenUp AC 0" 	0
scalar AODVVANET.vehicle[13].wlan.mac 	"numDropped AC 0" 	0
scalar AODVVANET.vehicle[13].wlan.mac 	rcvdPkFromHL:count 	6
attr interpolationmode  none
attr source  packetReceivedFromUpper
attr title  "packets received from higher layer, count"
scalar AODVVANET.vehicle[13].wlan.mac 	rcvdPkFromHL:sum(packetBytes) 	372
attr interpolationmode  none
attr source  packetReceivedFromUpper
attr title  "packets received from higher layer, sum(packetBytes)"
scalar AODVVANET.vehicle[13].wlan.mac 	passedUpPk:count 	0
attr interpolationmode  none
attr source  packetSentToUpper
attr title  "packets passed to higher layer, count"
scalar AODVVANET.vehicle[13].wlan.mac 	passedUpPk:sum(packetBytes) 	0
attr interpolationmode  none
attr source  packetSentToUpper
attr title  "packets passed to higher layer, sum(packetBytes)"
scalar AODVVANET.vehicle[13].wlan.mac 	rcvdPkFromLL:count 	0
attr interpolationmode  none
attr source  packetReceivedFromLower
attr title  "packets received from lower layer, count"
scalar AODVVANET.vehicle[13].wlan.mac 	rcvdPkFromLL:sum(packetBytes) 	0
attr interpolationmode  none
attr source  packetReceivedFromLower
attr title  "packets received from lower layer, sum(packetBytes)"
scalar AODVVANET.vehicle[13].wlan.mac 	sentDownPk:count 	6
attr interpolationmode  none
attr source  packetSentToLower
attr title  "packets sent to lower layer, count"
scalar AODVVANET.vehicle[13].wlan.mac 	sentDownPk:sum(packetBytes) 	372
attr interpolationmode  none
attr source  packetSentToLower
attr title  "packets sent to lower layer, sum(packetBytes)"
scalar AODVVANET.vehicle[13].wlan.radio 	lossRate:min 	-nan
attr interpolationmode  backward-sample-hold
attr title  "packet loss rate, min"
scalar AODVVANET.vehicle[13].wlan.radio 	lossRate:max 	-nan
attr interpolationmode  backward-sample-hold
attr title  "packet loss rate, max"
scalar AODVVANET.vehicle[13].wlan.radio 	lossRate:timeavg 	-nan
attr interpolationmode  backward-sample-hold
attr title  "packet loss rate, timeavg"
statistic AODVVANET.vehicle[13].wlan.radio 	channelNo:histogram
field count 1
field mean 0
field stddev -nan
field sum 0
field sqrsum 0
field min 0
field max 0
attr interpolationmode  sample-hold
attr title  "channel no, histogram"
bin	-INF	0
bin	-0.5	0
bin	-0.46666666666667	0
bin	-0.43333333333333	0
bin	-0.4	0
bin	-0.36666666666667	0
bin	-0.33333333333333	0
bin	-0.3	0
bin	-0.26666666666667	0
bin	-0.23333333333333	0
bin	-0.2	0
bin	-0.16666666666667	0
bin	-0.13333333333333	0
bin	-0.1	0
bin	-0.066666666666667	0
bin	-0.033333333333333	0
bin	0	1
bin	0.033333333333333	0
bin	0.066666666666667	0
bin	0.1	0
bin	0.13333333333333	0
bin	0.16666666666667	0
bin	0.2	0
bin	0.23333333333333	0
bin	0.26666666666667	0
bin	0.3	0
bin	0.33333333333333	0
bin	0.36666666666667	0
bin	0.4	0
bin	0.43333333333333	0
bin	0.46666666666667	0
bin	0.5	0
scalar AODVVANET.vehicle[13].wlan.radio 	bitrate:min 	2000000
attr interpolationmode  sample-hold
attr title  "tx bitrate, min"
attr unit  bps
scalar AODVVANET.vehicle[13].wlan.radio 	bitrate:max 	2000000
attr interpolationmode  sample-hold
attr title  "tx bitrate, max"
attr unit  bps
scalar AODVVANET.vehicle[13].wlan.radio 	bitrate:timeavg 	2000000
attr interpolationmode  sample-hold
attr title  "tx bitrate, timeavg"
attr unit  bps
scalar AODVVANET.vehicle[13].wlan.radio 	radioState:count 	13
attr interpolationmode  sample-hold
attr title  "radio state (enum), count"
scalar AODVVANET.vehicle[14].mobility 	startTime 	52
scalar AODVVANET.vehicle[14].mobility 	totalTime 	109
scalar AODVVANET.vehicle[14].mobility 	stopTime 	110
scalar AODVVANET.vehicle[14].mobility 	minSpeed 	4.2137332982994
scalar AODVVANET.vehicle[14].mobility 	maxSpeed 	13.996812054948
scalar AODVVANET.vehicle[14].mobility 	totalDistance 	759.61138983832
scalar AODVVANET.vehicle[14].udp 	droppedPkBadChecksum:count 	0
attr interpolationmode  none
attr title  "packets dropped (checksum error), count"
scalar AODVVANET.vehicle[14].udp 	droppedPkWrongPort:count 	0
attr interpolationmode  none
attr title  "packets dropped (wrong port), count"
scalar AODVVANET.vehicle[14].udp 	passedUpPk:count 	0
attr interpolationmode  none
attr title  "packets passed up, count"
scalar AODVVANET.vehicle[14].udp 	rcvdPk:count 	0
attr interpolationmode  none
attr source  rcvdPk
attr title  "packets received, count"
scalar AODVVANET.vehicle[14].udp 	rcvdPk:sum(packetBytes) 	0
attr interpolationmode  none
attr source  rcvdPk
attr title  "packets received, sum(packetBytes)"
scalar AODVVANET.vehicle[14].udp 	sentPk:count 	1
attr interpolationmode  none
attr source  sentPk
attr title  "packets sent, count"
scalar AODVVANET.vehicle[14].udp 	sentPk:sum(packetBytes) 	8
attr interpolationmode  none
attr source  sentPk
attr title  "packets sent, sum(packetBytes)"
scalar AODVVANET.vehicle[14].networkLayer.arp 	failedARPResolution:count 	0
attr title  "ARP failed resolutions, count"
scalar AODVVANET.vehicle[14].networkLayer.arp 	completedARPResolution:count 	0
attr title  "ARP completed resolutions, count"
scalar AODVVANET.vehicle[14].networkLayer.arp 	initiatedARPResolution:count 	0
attr title  "ARP initiated resolutions, count"
scalar AODVVANET.vehicle[14].networkLayer.arp 	sentReply:count 	0
attr title  "ARP replies sent, count"
scalar AODVVANET.vehicle[14].networkLayer.arp 	sentReq:count 	0
attr title  "ARP request sent, count"
scalar AODVVANET.vehicle[14].wlan.mgmt 	dataQueueLen:max 	0
attr interpolationmode  sample-hold
attr title  "data queue length, max"
scalar AODVVANET.vehicle[14].wlan.mgmt 	dataQueueLen:timeavg 	0
attr interpolationmode  sample-hold
attr title  "data queue length, timeavg"
scalar AODVVANET.vehicle[14].wlan.mgmt 	dropPkByQueue:count 	0
attr interpolationmode  none
attr source  dropPkByQueue
attr title  "packets dropped by queue, count"
scalar AODVVANET.vehicle[14].wlan.mgmt 	dropPkByQueue:sum(packetBytes) 	0
attr interpolationmode  none
attr source  dropPkByQueue
attr title  "packets dropped by queue, sum(packetBytes)"
scalar AODVVANET.vehicle[14].wlan.mac 	"number of received packets" 	0
scalar AODVVANET.vehicle[14].wlan.mac 	"number of collisions" 	0
scalar AODVVANET.vehicle[14].wlan.mac 	"number of internal collisions" 	0
scalar AODVVANET.vehicle[14].wlan.mac 	"number of retry for AC 0" 	0
scalar AODVVANET.vehicle[14].wlan.mac 	"sent and received bits" 	2976
scalar AODVVANET.vehicle[14].wlan.mac 	"sent packet within AC 0" 	0
scalar AODVVANET.vehicle[14].wlan.mac 	"sent in TXOP " 	0
scalar AODVVANET.vehicle[14].wlan.mac 	"sentWithoutRetry AC 0" 	0
scalar AODVVANET.vehicle[14].wlan.mac 	"numGivenUp AC 0" 	0
scalar AODVVANET.vehicle[14].wlan.mac 	"numDropped AC 0" 	0
scalar AODVVANET.vehicle[14].wlan.mac 	rcvdPkFromHL:count 	6
attr interpolationmode  none
attr source  packetReceivedFromUpper
attr title  "packets received from higher layer, count"
scalar AODVVANET.vehicle[14].wlan.mac 	rcvdPkFromHL:sum(packetBytes) 	372
attr interpolationmode  none
attr source  packetReceivedFromUpper
attr title  "packets received from higher layer, sum(packetBytes)"
scalar AODVVANET.vehicle[14].wlan.mac 	passedUpPk:count 	0
attr interpolationmode  none
attr source  packetSentToUpper
attr title  "packets passed to higher layer, count"
scalar AODVVANET.vehicle[14].wlan.mac 	passedUpPk:sum(packetBytes) 	0
attr interpolationmode  none
attr source  packetSentToUpper
attr title  "packets passed to higher layer, sum(packetBytes)"
scalar AODVVANET.vehicle[14].wlan.mac 	rcvdPkFromLL:count 	0
attr interpolationmode  none
attr source  packetReceivedFromLower
attr title  "packets received from lower layer, count"
scalar AODVVANET.vehicle[14].wlan.mac 	rcvdPkFromLL:sum(packetBytes) 	0
attr interpolationmode  none
attr source  packetReceivedFromLower
attr title  "packets received from lower layer, sum(packetBytes)"
scalar AODVVANET.vehicle[14].wlan.mac 	sentDownPk:count 	6
attr interpolationmode  none
attr source  packetSentToLower
attr title  "packets sent to lower layer, count"
scalar AODVVANET.vehicle[14].wlan.mac 	sentDownPk:sum(packetBytes) 	372
attr interpolationmode  none
attr source  packetSentToLower
attr title  "packets sent to lower layer, sum(packetBytes)"
scalar AODVVANET.vehicle[14].wlan.radio 	lossRate:min 	-nan
attr interpolationmode  backward-sample-hold
attr title  "packet loss rate, min"
scalar AODVVANET.vehicle[14].wlan.radio 	lossRate:max 	-nan
attr interpolationmode  backward-sample-hold
attr title  "packet loss rate, max"
scalar AODVVANET.vehicle[14].wlan.radio 	lossRate:timeavg 	-nan
attr interpolationmode  backward-sample-hold
attr title  "packet loss rate, timeavg"
statistic AODVVANET.vehicle[14].wlan.radio 	channelNo:histogram
field count 1
field mean 0
field stddev -nan
field sum 0
field sqrsum 0
field min 0
field max 0
attr interpolationmode  sample-hold
attr title  "channel no, histogram"
bin	-INF	0
bin	-0.5	0
bin	-0.46666666666667	0
bin	-0.43333333333333	0
bin	-0.4	0
bin	-0.36666666666667	0
bin	-0.33333333333333	0
bin	-0.3	0
bin	-0.26666666666667	0
bin	-0.23333333333333	0
bin	-0.2	0
bin	-0.16666666666667	0
bin	-0.13333333333333	0
bin	-0.1	0
bin	-0.066666666666667	0
bin	-0.033333333333333	0
bin	0	1
bin	0.033333333333333	0
bin	0.066666666666667	0
bin	0.1	0
bin	0.13333333333333	0
bin	0.16666666666667	0
bin	0.2	0
bin	0.23333333333333	0
bin	0.26666666666667	0
bin	0.3	0
bin	0.33333333333333	0
bin	0.36666666666667	0
bin	0.4	0
bin	0.43333333333333	0
bin	0.46666666666667	0
bin	0.5	0
scalar AODVVANET.vehicle[14].wlan.radio 	bitrate:min 	2000000
attr interpolationmode  sample-hold
attr title  "tx bitrate, min"
attr unit  bps
scalar AODVVANET.vehicle[14].wlan.radio 	bitrate:max 	2000000
attr interpolationmode  sample-hold
attr title  "tx bitrate, max"
attr unit  bps
scalar AODVVANET.vehicle[14].wlan.radio 	bitrate:timeavg 	2000000
attr interpolationmode  sample-hold
attr title  "tx bitrate, timeavg"
attr unit  bps
scalar AODVVANET.vehicle[14].wlan.radio 	radioState:count 	13
attr interpolationmode  sample-hold
attr title  "radio state (enum), count"
scalar AODVVANET.vehicle[1].mobility 	startTime 	12
scalar AODVVANET.vehicle[1].mobility 	totalTime 	109
scalar AODVVANET.vehicle[1].mobility 	stopTime 	110
scalar AODVVANET.vehicle[1].mobility 	minSpeed 	4.1314942782517
scalar AODVVANET.vehicle[1].mobility 	maxSpeed 	13.999992804453
scalar AODVVANET.vehicle[1].mobility 	totalDistance 	1314.821209062
scalar AODVVANET.vehicle[1].udp 	droppedPkBadChecksum:count 	0
attr interpolationmode  none
attr title  "packets dropped (checksum error), count"
scalar AODVVANET.vehicle[1].udp 	droppedPkWrongPort:count 	0
attr interpolationmode  none
attr title  "packets dropped (wrong port), count"
scalar AODVVANET.vehicle[1].udp 	passedUpPk:count 	0
attr interpolationmode  none
attr title  "packets passed up, count"
scalar AODVVANET.vehicle[1].udp 	rcvdPk:count 	0
attr interpolationmode  none
attr source  rcvdPk
attr title  "packets received, count"
scalar AODVVANET.vehicle[1].udp 	rcvdPk:sum(packetBytes) 	0
attr interpolationmode  none
attr source  rcvdPk
attr title  "packets received, sum(packetBytes)"
scalar AODVVANET.vehicle[1].udp 	sentPk:count 	1
attr interpolationmode  none
attr source  sentPk
attr title  "packets sent, count"
scalar AODVVANET.vehicle[1].udp 	sentPk:sum(packetBytes) 	8
attr interpolationmode  none
attr source  sentPk
attr title  "packets sent, sum(packetBytes)"
scalar AODVVANET.vehicle[1].networkLayer.arp 	failedARPResolution:count 	0
attr title  "ARP failed resolutions, count"
scalar AODVVANET.vehicle[1].networkLayer.arp 	completedARPResolution:count 	0
attr title  "ARP completed resolutions, count"
scalar AODVVANET.vehicle[1].networkLayer.arp 	initiatedARPResolution:count 	0
attr title  "ARP initiated resolutions, count"
scalar AODVVANET.vehicle[1].networkLayer.arp 	sentReply:count 	0
attr title  "ARP replies sent, count"
scalar AODVVANET.vehicle[1].networkLayer.arp 	sentReq:count 	0
attr title  "ARP request sent, count"
scalar AODVVANET.vehicle[1].wlan.mgmt 	dataQueueLen:max 	0
attr interpolationmode  sample-hold
attr title  "data queue length, max"
scalar AODVVANET.vehicle[1].wlan.mgmt 	dataQueueLen:timeavg 	0
attr interpolationmode  sample-hold
attr title  "data queue length, timeavg"
scalar AODVVANET.vehicle[1].wlan.mgmt 	dropPkByQueue:count 	0
attr interpolationmode  none
attr source  dropPkByQueue
attr title  "packets dropped by queue, count"
scalar AODVVANET.vehicle[1].wlan.mgmt 	dropPkByQueue:sum(packetBytes) 	0
attr interpolationmode  none
attr source  dropPkByQueue
attr title  "packets dropped by queue, sum(packetBytes)"
scalar AODVVANET.vehicle[1].wlan.mac 	"number of received packets" 	0
scalar AODVVANET.vehicle[1].wlan.mac 	"number of collisions" 	0
scalar AODVVANET.vehicle[1].wlan.mac 	"number of internal collisions" 	0
scalar AODVVANET.vehicle[1].wlan.mac 	"number of retry for AC 0" 	0
scalar AODVVANET.vehicle[1].wlan.mac 	"sent and received bits" 	2976
scalar AODVVANET.vehicle[1].wlan.mac 	"sent packet within AC 0" 	0
scalar AODVVANET.vehicle[1].wlan.mac 	"sent in TXOP " 	0
scalar AODVVANET.vehicle[1].wlan.mac 	"sentWithoutRetry AC 0" 	0
scalar AODVVANET.vehicle[1].wlan.mac 	"numGivenUp AC 0" 	0
scalar AODVVANET.vehicle[1].wlan.mac 	"numDropped AC 0" 	0
scalar AODVVANET.vehicle[1].wlan.mac 	rcvdPkFromHL:count 	6
attr interpolationmode  none
attr source  packetReceivedFromUpper
attr title  "packets received from higher layer, count"
scalar AODVVANET.vehicle[1].wlan.mac 	rcvdPkFromHL:sum(packetBytes) 	372
attr interpolationmode  none
attr source  packetReceivedFromUpper
attr title  "packets received from higher layer, sum(packetBytes)"
scalar AODVVANET.vehicle[1].wlan.mac 	passedUpPk:count 	0
attr interpolationmode  none
attr source  packetSentToUpper
attr title  "packets passed to higher layer, count"
scalar AODVVANET.vehicle[1].wlan.mac 	passedUpPk:sum(packetBytes) 	0
attr interpolationmode  none
attr source  packetSentToUpper
attr title  "packets passed to higher layer, sum(packetBytes)"
scalar AODVVANET.vehicle[1].wlan.mac 	rcvdPkFromLL:count 	0
attr interpolationmode  none
attr source  packetReceivedFromLower
attr title  "packets received from lower layer, count"
scalar AODVVANET.vehicle[1].wlan.mac 	rcvdPkFromLL:sum(packetBytes) 	0
attr interpolationmode  none
attr source  packetReceivedFromLower
attr title  "packets received from lower layer, sum(packetBytes)"
scalar AODVVANET.vehicle[1].wlan.mac 	sentDownPk:count 	6
attr interpolationmode  none
attr source  packetSentToLower
attr title  "packets sent to lower layer, count"
scalar AODVVANET.vehicle[1].wlan.mac 	sentDownPk:sum(packetBytes) 	372
attr interpolationmode  none
attr source  packetSentToLower
attr title  "packets sent to lower layer, sum(packetBytes)"
scalar AODVVANET.vehicle[1].wlan.radio 	lossRate:min 	-nan
attr interpolationmode  backward-sample-hold
attr title  "packet loss rate, min"
scalar AODVVANET.vehicle[1].wlan.radio 	lossRate:max 	-nan
attr interpolationmode  backward-sample-hold
attr title  "packet loss rate, max"
scalar AODVVANET.vehicle[1].wlan.radio 	lossRate:timeavg 	-nan
attr interpolationmode  backward-sample-hold
attr title  "packet loss rate, timeavg"
statistic AODVVANET.vehicle[1].wlan.radio 	channelNo:histogram
field count 1
field mean 0
field stddev -nan
field sum 0
field sqrsum 0
field min 0
field max 0
attr interpolationmode  sample-hold
attr title  "channel no, histogram"
bin	-INF	0
bin	-0.5	0
bin	-0.46666666666667	0
bin	-0.43333333333333	0
bin	-0.4	0
bin	-0.36666666666667	0
bin	-0.33333333333333	0
bin	-0.3	0
bin	-0.26666666666667	0
bin	-0.23333333333333	0
bin	-0.2	0
bin	-0.16666666666667	0
bin	-0.13333333333333	0
bin	-0.1	0
bin	-0.066666666666667	0
bin	-0.033333333333333	0
bin	0	1
bin	0.033333333333333	0
bin	0.066666666666667	0
bin	0.1	0
bin	0.13333333333333	0
bin	0.16666666666667	0
bin	0.2	0
bin	0.23333333333333	0
bin	0.26666666666667	0
bin	0.3	0
bin	0.33333333333333	0
bin	0.36666666666667	0
bin	0.4	0
bin	0.43333333333333	0
bin	0.46666666666667	0
bin	0.5	0
scalar AODVVANET.vehicle[1].wlan.radio 	bitrate:min 	2000000
attr interpolationmode  sample-hold
attr title  "tx bitrate, min"
attr unit  bps
scalar AODVVANET.vehicle[1].wlan.radio 	bitrate:max 	2000000
attr interpolationmode  sample-hold
attr title  "tx bitrate, max"
attr unit  bps
scalar AODVVANET.vehicle[1].wlan.radio 	bitrate:timeavg 	2000000
attr interpolationmode  sample-hold
attr title  "tx bitrate, timeavg"
attr unit  bps
scalar AODVVANET.vehicle[1].wlan.radio 	radioState:count 	13
attr interpolationmode  sample-hold
attr title  "radio state (enum), count"
scalar AODVVANET.vehicle[15].mobility 	startTime 	68
scalar AODVVANET.vehicle[15].mobility 	totalTime 	109
scalar AODVVANET.vehicle[15].mobility 	stopTime 	110
scalar AODVVANET.vehicle[15].mobility 	minSpeed 	4.0164078250934
scalar AODVVANET.vehicle[15].mobility 	maxSpeed 	13.994766629937
scalar AODVVANET.vehicle[15].mobility 	totalDistance 	513.82077709661
scalar AODVVANET.vehicle[15].udp 	droppedPkBadChecksum:count 	0
attr interpolationmode  none
attr title  "packets dropped (checksum error), count"
scalar AODVVANET.vehicle[15].udp 	droppedPkWrongPort:count 	0
attr interpolationmode  none
attr title  "packets dropped (wrong port), count"
scalar AODVVANET.vehicle[15].udp 	passedUpPk:count 	0
attr interpolationmode  none
attr title  "packets passed up, count"
scalar AODVVANET.vehicle[15].udp 	rcvdPk:count 	0
attr interpolationmode  none
attr source  rcvdPk
attr title  "packets received, count"
scalar AODVVANET.vehicle[15].udp 	rcvdPk:sum(packetBytes) 	0
attr interpolationmode  none
attr source  rcvdPk
attr title  "packets received, sum(packetBytes)"
scalar AODVVANET.vehicle[15].udp 	sentPk:count 	1
attr interpolationmode  none
attr source  sentPk
attr title  "packets sent, count"
scalar AODVVANET.vehicle[15].udp 	sentPk:sum(packetBytes) 	8
attr interpolationmode  none
attr source  sentPk
attr title  "packets sent, sum(packetBytes)"
scalar AODVVANET.vehicle[15].networkLayer.arp 	failedARPResolution:count 	0
attr title  "ARP failed resolutions, count"
scalar AODVVANET.vehicle[15].networkLayer.arp 	completedARPResolution:count 	0
attr title  "ARP completed resolutions, count"
scalar AODVVANET.vehicle[15].networkLayer.arp 	initiatedARPResolution:count 	0
attr title  "ARP initiated resolutions, count"
scalar AODVVANET.vehicle[15].networkLayer.arp 	sentReply:count 	0
attr title  "ARP replies sent, count"
scalar AODVVANET.vehicle[15].networkLayer.arp 	sentReq:count 	0
attr title  "ARP request sent, count"
scalar AODVVANET.vehicle[15].wlan.mgmt 	dataQueueLen:max 	0
attr interpolationmode  sample-hold
attr title  "data queue length, max"
scalar AODVVANET.vehicle[15].wlan.mgmt 	dataQueueLen:timeavg 	0
attr interpolationmode  sample-hold
attr title  "data queue length, timeavg"
scalar AODVVANET.vehicle[15].wlan.mgmt 	dropPkByQueue:count 	0
attr interpolationmode  none
attr source  dropPkByQueue
attr title  "packets dropped by queue, count"
scalar AODVVANET.vehicle[15].wlan.mgmt 	dropPkByQueue:sum(packetBytes) 	0
attr interpolationmode  none
attr source  dropPkByQueue
attr title  "packets dropped by queue, sum(packetBytes)"
scalar AODVVANET.vehicle[15].wlan.mac 	"number of received packets" 	0
scalar AODVVANET.vehicle[15].wlan.mac 	"number of collisions" 	0
scalar AODVVANET.vehicle[15].wlan.mac 	"number of internal collisions" 	0
scalar AODVVANET.vehicle[15].wlan.mac 	"number of retry for AC 0" 	0
scalar AODVVANET.vehicle[15].wlan.mac 	"sent and received bits" 	7440
scalar AODVVANET.vehicle[15].wlan.mac 	"sent packet within AC 0" 	0
scalar AODVVANET.vehicle[15].wlan.mac 	"sent in TXOP " 	0
scalar AODVVANET.vehicle[15].wlan.mac 	"sentWithoutRetry AC 0" 	0
scalar AODVVANET.vehicle[15].wlan.mac 	"numGivenUp AC 0" 	0
scalar AODVVANET.vehicle[15].wlan.mac 	"numDropped AC 0" 	0
scalar AODVVANET.vehicle[15].wlan.mac 	rcvdPkFromHL:count 	15
attr interpolationmode  none
attr source  packetReceivedFromUpper
attr title  "packets received from higher layer, count"
scalar AODVVANET.vehicle[15].wlan.mac 	rcvdPkFromHL:sum(packetBytes) 	930
attr interpolationmode  none
attr source  packetReceivedFromUpper
attr title  "packets received from higher layer, sum(packetBytes)"
scalar AODVVANET.vehicle[15].wlan.mac 	passedUpPk:count 	26
attr interpolationmode  none
attr source  packetSentToUpper
attr title  "packets passed to higher layer, count"
scalar AODVVANET.vehicle[15].wlan.mac 	passedUpPk:sum(packetBytes) 	1612
attr interpolationmode  none
attr source  packetSentToUpper
attr title  "packets passed to higher layer, sum(packetBytes)"
scalar AODVVANET.vehicle[15].wlan.mac 	rcvdPkFromLL:count 	26
attr interpolationmode  none
attr source  packetReceivedFromLower
attr title  "packets received from lower layer, count"
scalar AODVVANET.vehicle[15].wlan.mac 	rcvdPkFromLL:sum(packetBytes) 	1612
attr interpolationmode  none
attr source  packetReceivedFromLower
attr title  "packets received from lower layer, sum(packetBytes)"
scalar AODVVANET.vehicle[15].wlan.mac 	sentDownPk:count 	15
attr interpolationmode  none
attr source  packetSentToLower
attr title  "packets sent to lower layer, count"
scalar AODVVANET.vehicle[15].wlan.mac 	sentDownPk:sum(packetBytes) 	930
attr interpolationmode  none
attr source  packetSentToLower
attr title  "packets sent to lower layer, sum(packetBytes)"
scalar AODVVANET.vehicle[15].wlan.radio 	lossRate:min 	-nan
attr interpolationmode  backward-sample-hold
attr title  "packet loss rate, min"
scalar AODVVANET.vehicle[15].wlan.radio 	lossRate:max 	-nan
attr interpolationmode  backward-sample-hold
attr title  "packet loss rate, max"
scalar AODVVANET.vehicle[15].wlan.radio 	lossRate:timeavg 	-nan
attr interpolationmode  backward-sample-hold
attr title  "packet loss rate, timeavg"
statistic AODVVANET.vehicle[15].wlan.radio 	channelNo:histogram
field count 1
field mean 0
field stddev -nan
field sum 0
field sqrsum 0
field min 0
field max 0
attr interpolationmode  sample-hold
attr title  "channel no, histogram"
bin	-INF	0
bin	-0.5	0
bin	-0.46666666666667	0
bin	-0.43333333333333	0
bin	-0.4	0
bin	-0.36666666666667	0
bin	-0.33333333333333	0
bin	-0.3	0
bin	-0.26666666666667	0
bin	-0.23333333333333	0
bin	-0.2	0
bin	-0.16666666666667	0
bin	-0.13333333333333	0
bin	-0.1	0
bin	-0.066666666666667	0
bin	-0.033333333333333	0
bin	0	1
bin	0.033333333333333	0
bin	0.066666666666667	0
bin	0.1	0
bin	0.13333333333333	0
bin	0.16666666666667	0
bin	0.2	0
bin	0.23333333333333	0
bin	0.26666666666667	0
bin	0.3	0
bin	0.33333333333333	0
bin	0.36666666666667	0
bin	0.4	0
bin	0.43333333333333	0
bin	0.46666666666667	0
bin	0.5	0
scalar AODVVANET.vehicle[15].wlan.radio 	bitrate:min 	2000000
attr interpolationmode  sample-hold
attr title  "tx bitrate, min"
attr unit  bps
scalar AODVVANET.vehicle[15].wlan.radio 	bitrate:max 	2000000
attr interpolationmode  sample-hold
attr title  "tx bitrate, max"
attr unit  bps
scalar AODVVANET.vehicle[15].wlan.radio 	bitrate:timeavg 	2000000
attr interpolationmode  sample-hold
attr title  "tx bitrate, timeavg"
attr unit  bps
scalar AODVVANET.vehicle[15].wlan.radio 	radioState:count 	83
attr interpolationmode  sample-hold
attr title  "radio state (enum), count"
scalar AODVVANET.vehicle[16].mobility 	startTime 	71
scalar AODVVANET.vehicle[16].mobility 	totalTime 	109
scalar AODVVANET.vehicle[16].mobility 	stopTime 	110
scalar AODVVANET.vehicle[16].mobility 	minSpeed 	4.0398735602959
scalar AODVVANET.vehicle[16].mobility 	maxSpeed 	13.993403561295
scalar AODVVANET.vehicle[16].mobility 	totalDistance 	491.01666351175
scalar AODVVANET.vehicle[16].udp 	droppedPkBadChecksum:count 	0
attr interpolationmode  none
attr title  "packets dropped (checksum error), count"
scalar AODVVANET.vehicle[16].udp 	droppedPkWrongPort:count 	0
attr interpolationmode  none
attr title  "packets dropped (wrong port), count"
scalar AODVVANET.vehicle[16].udp 	passedUpPk:count 	0
attr interpolationmode  none
attr title  "packets passed up, count"
scalar AODVVANET.vehicle[16].udp 	rcvdPk:count 	0
attr interpolationmode  none
attr source  rcvdPk
attr title  "packets received, count"
scalar AODVVANET.vehicle[16].udp 	rcvdPk:sum(packetBytes) 	0
attr interpolationmode  none
attr source  rcvdPk
attr title  "packets received, sum(packetBytes)"
scalar AODVVANET.vehicle[16].udp 	sentPk:count 	1
attr interpolationmode  none
attr source  sentPk
attr title  "packets sent, count"
scalar AODVVANET.vehicle[16].udp 	sentPk:sum(packetBytes) 	8
attr interpolationmode  none
attr source  sentPk
attr title  "packets sent, sum(packetBytes)"
scalar AODVVANET.vehicle[16].networkLayer.arp 	failedARPResolution:count 	0
attr title  "ARP failed resolutions, count"
scalar AODVVANET.vehicle[16].networkLayer.arp 	completedARPResolution:count 	0
attr title  "ARP completed resolutions, count"
scalar AODVVANET.vehicle[16].networkLayer.arp 	initiatedARPResolution:count 	0
attr title  "ARP initiated resolutions, count"
scalar AODVVANET.vehicle[16].networkLayer.arp 	sentReply:count 	0
attr title  "ARP replies sent, count"
scalar AODVVANET.vehicle[16].networkLayer.arp 	sentReq:count 	0
attr title  "ARP request sent, count"
scalar AODVVANET.vehicle[16].wlan.mgmt 	dataQueueLen:max 	0
attr interpolationmode  sample-hold
attr title  "data queue length, max"
scalar AODVVANET.vehicle[16].wlan.mgmt 	dataQueueLen:timeavg 	0
attr interpolationmode  sample-hold
attr title  "data queue length, timeavg"
scalar AODVVANET.vehicle[16].wlan.mgmt 	dropPkByQueue:count 	0
attr interpolationmode  none
attr source  dropPkByQueue
attr title  "packets dropped by queue, count"
scalar AODVVANET.vehicle[16].wlan.mgmt 	dropPkByQueue:sum(packetBytes) 	0
attr interpolationmode  none
attr source  dropPkByQueue
attr title  "packets dropped by queue, sum(packetBytes)"
scalar AODVVANET.vehicle[16].wlan.mac 	"number of received packets" 	0
scalar AODVVANET.vehicle[16].wlan.mac 	"number of collisions" 	0
scalar AODVVANET.vehicle[16].wlan.mac 	"number of internal collisions" 	0
scalar AODVVANET.vehicle[16].wlan.mac 	"number of retry for AC 0" 	0
scalar AODVVANET.vehicle[16].wlan.mac 	"sent and received bits" 	2976
scalar AODVVANET.vehicle[16].wlan.mac 	"sent packet within AC 0" 	0
scalar AODVVANET.vehicle[16].wlan.mac 	"sent in TXOP " 	0
scalar AODVVANET.vehicle[16].wlan.mac 	"sentWithoutRetry AC 0" 	0
scalar AODVVANET.vehicle[16].wlan.mac 	"numGivenUp AC 0" 	0
scalar AODVVANET.vehicle[16].wlan.mac 	"numDropped AC 0" 	0
scalar AODVVANET.vehicle[16].wlan.mac 	rcvdPkFromHL:count 	6
attr interpolationmode  none
attr source  packetReceivedFromUpper
attr title  "packets received from higher layer, count"
scalar AODVVANET.vehicle[16].wlan.mac 	rcvdPkFromHL:sum(packetBytes) 	372
attr interpolationmode  none
attr source  packetReceivedFromUpper
attr title  "packets received from higher layer, sum(packetBytes)"
scalar AODVVANET.vehicle[16].wlan.mac 	passedUpPk:count 	0
attr interpolationmode  none
attr source  packetSentToUpper
attr title  "packets passed to higher layer, count"
scalar AODVVANET.vehicle[16].wlan.mac 	passedUpPk:sum(packetBytes) 	0
attr interpolationmode  none
attr source  packetSentToUpper
attr title  "packets passed to higher layer, sum(packetBytes)"
scalar AODVVANET.vehicle[16].wlan.mac 	rcvdPkFromLL:count 	0
attr interpolationmode  none
attr source  packetReceivedFromLower
attr title  "packets received from lower layer, count"
scalar AODVVANET.vehicle[16].wlan.mac 	rcvdPkFromLL:sum(packetBytes) 	0
attr interpolationmode  none
attr source  packetReceivedFromLower
attr title  "packets received from lower layer, sum(packetBytes)"
scalar AODVVANET.vehicle[16].wlan.mac 	sentDownPk:count 	6
attr interpolationmode  none
attr source  packetSentToLower
attr title  "packets sent to lower layer, count"
scalar AODVVANET.vehicle[16].wlan.mac 	sentDownPk:sum(packetBytes) 	372
attr interpolationmode  none
attr source  packetSentToLower
attr title  "packets sent to lower layer, sum(packetBytes)"
scalar AODVVANET.vehicle[16].wlan.radio 	lossRate:min 	-nan
attr interpolationmode  backward-sample-hold
attr title  "packet loss rate, min"
scalar AODVVANET.vehicle[16].wlan.radio 	lossRate:max 	-nan
attr interpolationmode  backward-sample-hold
attr title  "packet loss rate, max"
scalar AODVVANET.vehicle[16].wlan.radio 	lossRate:timeavg 	-nan
attr interpolationmode  backward-sample-hold
attr title  "packet loss rate, timeavg"
statistic AODVVANET.vehicle[16].wlan.radio 	channelNo:histogram
field count 1
field mean 0
field stddev -nan
field sum 0
field sqrsum 0
field min 0
field max 0
attr interpolationmode  sample-hold
attr title  "channel no, histogram"
bin	-INF	0
bin	-0.5	0
bin	-0.46666666666667	0
bin	-0.43333333333333	0
bin	-0.4	0
bin	-0.36666666666667	0
bin	-0.33333333333333	0
bin	-0.3	0
bin	-0.26666666666667	0
bin	-0.23333333333333	0
bin	-0.2	0
bin	-0.16666666666667	0
bin	-0.13333333333333	0
bin	-0.1	0
bin	-0.066666666666667	0
bin	-0.033333333333333	0
bin	0	1
bin	0.033333333333333	0
bin	0.066666666666667	0
bin	0.1	0
bin	0.13333333333333	0
bin	0.16666666666667	0
bin	0.2	0
bin	0.23333333333333	0
bin	0.26666666666667	0
bin	0.3	0
bin	0.33333333333333	0
bin	0.36666666666667	0
bin	0.4	0
bin	0.43333333333333	0
bin	0.46666666666667	0
bin	0.5	0
scalar AODVVANET.vehicle[16].wlan.radio 	bitrate:min 	2000000
attr interpolationmode  sample-hold
attr title  "tx bitrate, min"
attr unit  bps
scalar AODVVANET.vehicle[16].wlan.radio 	bitrate:max 	2000000
attr interpolationmode  sample-hold
attr title  "tx bitrate, max"
attr unit  bps
scalar AODVVANET.vehicle[16].wlan.radio 	bitrate:timeavg 	2000000
attr interpolationmode  sample-hold
attr title  "tx bitrate, timeavg"
attr unit  bps
scalar AODVVANET.vehicle[16].wlan.radio 	radioState:count 	13
attr interpolationmode  sample-hold
attr title  "radio state (enum), count"
scalar AODVVANET.vehicle[17].mobility 	startTime 	75
scalar AODVVANET.vehicle[17].mobility 	totalTime 	109
scalar AODVVANET.vehicle[17].mobility 	stopTime 	110
scalar AODVVANET.vehicle[17].mobility 	minSpeed 	3.7336421224147
scalar AODVVANET.vehicle[17].mobility 	maxSpeed 	13.998174717848
scalar AODVVANET.vehicle[17].mobility 	totalDistance 	435.30381306107
scalar AODVVANET.vehicle[17].udp 	droppedPkBadChecksum:count 	0
attr interpolationmode  none
attr title  "packets dropped (checksum error), count"
scalar AODVVANET.vehicle[17].udp 	droppedPkWrongPort:count 	0
attr interpolationmode  none
attr title  "packets dropped (wrong port), count"
scalar AODVVANET.vehicle[17].udp 	passedUpPk:count 	0
attr interpolationmode  none
attr title  "packets passed up, count"
scalar AODVVANET.vehicle[17].udp 	rcvdPk:count 	0
attr interpolationmode  none
attr source  rcvdPk
attr title  "packets received, count"
scalar AODVVANET.vehicle[17].udp 	rcvdPk:sum(packetBytes) 	0
attr interpolationmode  none
attr source  rcvdPk
attr title  "packets received, sum(packetBytes)"
scalar AODVVANET.vehicle[17].udp 	sentPk:count 	1
attr interpolationmode  none
attr source  sentPk
[...]
attr source  packetSentToLower
attr title  "packets sent to lower layer, sum(packetBytes)"
scalar AODVVANET.vehicle[20].wlan.radio 	lossRate:min 	-nan
attr interpolationmode  backward-sample-hold
attr title  "packet loss rate, min"
scalar AODVVANET.vehicle[20].wlan.radio 	lossRate:max 	-nan
attr interpolationmode  backward-sample-hold
attr title  "packet loss rate, max"
scalar AODVVANET.vehicle[20].wlan.radio 	lossRate:timeavg 	-nan
attr interpolationmode  backward-sample-hold
attr title  "packet loss rate, timeavg"
statistic AODVVANET.vehicle[20].wlan.radio 	channelNo:histogram
field count 1
field mean 0
field stddev -nan
field sum 0
field sqrsum 0
field min 0
field max 0
attr interpolationmode  sample-hold
attr title  "channel no, histogram"
bin	-INF	0
bin	-0.5	0
bin	-0.46666666666667	0
bin	-0.43333333333333	0
bin	-0.4	0
bin	-0.36666666666667	0
bin	-0.33333333333333	0
bin	-0.3	0
bin	-0.26666666666667	0
bin	-0.23333333333333	0
bin	-0.2	0
bin	-0.16666666666667	0
bin	-0.13333333333333	0
bin	-0.1	0
bin	-0.066666666666667	0
bin	-0.033333333333333	0
bin	0	1
bin	0.033333333333333	0
bin	0.066666666666667	0
bin	0.1	0
bin	0.13333333333333	0
bin	0.16666666666667	0
bin	0.2	0
bin	0.23333333333333	0
bin	0.26666666666667	0
bin	0.3	0
bin	0.33333333333333	0
bin	0.36666666666667	0
bin	0.4	0
bin	0.43333333333333	0
bin	0.46666666666667	0
bin	0.5	0
scalar AODVVANET.vehicle[20].wlan.radio 	bitrate:min 	2000000
attr interpolationmode  sample-hold
attr title  "tx bitrate, min"
attr unit  bps
scalar AODVVANET.vehicle[20].wlan.radio 	bitrate:max 	2000000
attr interpolationmode  sample-hold
attr title  "tx bitrate, max"
attr unit  bps
scalar AODVVANET.vehicle[20].wlan.radio 	bitrate:timeavg 	2000000
attr interpolationmode  sample-hold
attr title  "tx bitrate, timeavg"
attr unit  bps
scalar AODVVANET.vehicle[20].wlan.radio 	radioState:count 	13
attr interpolationmode  sample-hold
attr title  "radio state (enum), count"
scalar AODVVANET.vehicle[6].mobility 	startTime 	25
scalar AODVVANET.vehicle[6].mobility 	totalTime 	109
scalar AODVVANET.vehicle[6].mobility 	stopTime 	110
scalar AODVVANET.vehicle[6].mobility 	minSpeed 	4.1049386252233
scalar AODVVANET.vehicle[6].mobility 	maxSpeed 	13.999498154137
scalar AODVVANET.vehicle[6].mobility 	totalDistance 	1132.2699757186
scalar AODVVANET.vehicle[6].udp 	droppedPkBadChecksum:count 	0
attr interpolationmode  none
attr title  "packets dropped (checksum error), count"
scalar AODVVANET.vehicle[6].udp 	droppedPkWrongPort:count 	0
attr interpolationmode  none
attr title  "packets dropped (wrong port), count"
scalar AODVVANET.vehicle[6].udp 	passedUpPk:count 	0
attr interpolationmode  none
attr title  "packets passed up, count"
scalar AODVVANET.vehicle[6].udp 	rcvdPk:count 	0
attr interpolationmode  none
attr source  rcvdPk
attr title  "packets received, count"
scalar AODVVANET.vehicle[6].udp 	rcvdPk:sum(packetBytes) 	0
attr interpolationmode  none
attr source  rcvdPk
attr title  "packets received, sum(packetBytes)"
scalar AODVVANET.vehicle[6].udp 	sentPk:count 	1
attr interpolationmode  none
attr source  sentPk
attr title  "packets sent, count"
scalar AODVVANET.vehicle[6].udp 	sentPk:sum(packetBytes) 	8
attr interpolationmode  none
attr source  sentPk
attr title  "packets sent, sum(packetBytes)"
scalar AODVVANET.vehicle[6].networkLayer.arp 	failedARPResolution:count 	0
attr title  "ARP failed resolutions, count"
scalar AODVVANET.vehicle[6].networkLayer.arp 	completedARPResolution:count 	1
attr title  "ARP completed resolutions, count"
scalar AODVVANET.vehicle[6].networkLayer.arp 	initiatedARPResolution:count 	0
attr title  "ARP initiated resolutions, count"
scalar AODVVANET.vehicle[6].networkLayer.arp 	sentReply:count 	1
attr title  "ARP replies sent, count"
scalar AODVVANET.vehicle[6].networkLayer.arp 	sentReq:count 	0
attr title  "ARP request sent, count"
scalar AODVVANET.vehicle[6].wlan.mgmt 	dataQueueLen:max 	0
attr interpolationmode  sample-hold
attr title  "data queue length, max"
scalar AODVVANET.vehicle[6].wlan.mgmt 	dataQueueLen:timeavg 	0
attr interpolationmode  sample-hold
attr title  "data queue length, timeavg"
scalar AODVVANET.vehicle[6].wlan.mgmt 	dropPkByQueue:count 	0
attr interpolationmode  none
attr source  dropPkByQueue
attr title  "packets dropped by queue, count"
scalar AODVVANET.vehicle[6].wlan.mgmt 	dropPkByQueue:sum(packetBytes) 	0
attr interpolationmode  none
attr source  dropPkByQueue
attr title  "packets dropped by queue, sum(packetBytes)"
scalar AODVVANET.vehicle[6].wlan.mac 	"number of received packets" 	1
scalar AODVVANET.vehicle[6].wlan.mac 	"number of collisions" 	0
scalar AODVVANET.vehicle[6].wlan.mac 	"number of internal collisions" 	0
scalar AODVVANET.vehicle[6].wlan.mac 	"number of retry for AC 0" 	0
scalar AODVVANET.vehicle[6].wlan.mac 	"sent and received bits" 	1616
scalar AODVVANET.vehicle[6].wlan.mac 	"sent packet within AC 0" 	2
scalar AODVVANET.vehicle[6].wlan.mac 	"sent in TXOP " 	0
scalar AODVVANET.vehicle[6].wlan.mac 	"sentWithoutRetry AC 0" 	2
scalar AODVVANET.vehicle[6].wlan.mac 	"numGivenUp AC 0" 	0
scalar AODVVANET.vehicle[6].wlan.mac 	"numDropped AC 0" 	0
scalar AODVVANET.vehicle[6].wlan.mac 	rcvdPkFromHL:count 	3
attr interpolationmode  none
attr source  packetReceivedFromUpper
attr title  "packets received from higher layer, count"
scalar AODVVANET.vehicle[6].wlan.mac 	rcvdPkFromHL:sum(packetBytes) 	202
attr interpolationmode  none
attr source  packetReceivedFromUpper
attr title  "packets received from higher layer, sum(packetBytes)"
scalar AODVVANET.vehicle[6].wlan.mac 	passedUpPk:count 	2
attr interpolationmode  none
attr source  packetSentToUpper
attr title  "packets passed to higher layer, count"
scalar AODVVANET.vehicle[6].wlan.mac 	passedUpPk:sum(packetBytes) 	132
attr interpolationmode  none
attr source  packetSentToUpper
attr title  "packets passed to higher layer, sum(packetBytes)"
scalar AODVVANET.vehicle[6].wlan.mac 	rcvdPkFromLL:count 	4
attr interpolationmode  none
attr source  packetReceivedFromLower
attr title  "packets received from lower layer, count"
scalar AODVVANET.vehicle[6].wlan.mac 	rcvdPkFromLL:sum(packetBytes) 	160
attr interpolationmode  none
attr source  packetReceivedFromLower
attr title  "packets received from lower layer, sum(packetBytes)"
scalar AODVVANET.vehicle[6].wlan.mac 	sentDownPk:count 	4
attr interpolationmode  none
attr source  packetSentToLower
attr title  "packets sent to lower layer, count"
scalar AODVVANET.vehicle[6].wlan.mac 	sentDownPk:sum(packetBytes) 	216
attr interpolationmode  none
attr source  packetSentToLower
attr title  "packets sent to lower layer, sum(packetBytes)"
scalar AODVVANET.vehicle[6].wlan.radio 	lossRate:min 	-nan
attr interpolationmode  backward-sample-hold
attr title  "packet loss rate, min"
scalar AODVVANET.vehicle[6].wlan.radio 	lossRate:max 	-nan
attr interpolationmode  backward-sample-hold
attr title  "packet loss rate, max"
scalar AODVVANET.vehicle[6].wlan.radio 	lossRate:timeavg 	-nan
attr interpolationmode  backward-sample-hold
attr title  "packet loss rate, timeavg"
statistic AODVVANET.vehicle[6].wlan.radio 	channelNo:histogram
field count 1
field mean 0
field stddev -nan
field sum 0
field sqrsum 0
field min 0
field max 0
attr interpolationmode  sample-hold
attr title  "channel no, histogram"
bin	-INF	0
bin	-0.5	0
bin	-0.46666666666667	0
bin	-0.43333333333333	0
bin	-0.4	0
bin	-0.36666666666667	0
bin	-0.33333333333333	0
bin	-0.3	0
bin	-0.26666666666667	0
bin	-0.23333333333333	0
bin	-0.2	0
bin	-0.16666666666667	0
bin	-0.13333333333333	0
bin	-0.1	0
bin	-0.066666666666667	0
bin	-0.033333333333333	0
bin	0	1
bin	0.033333333333333	0
bin	0.066666666666667	0
bin	0.1	0
bin	0.13333333333333	0
bin	0.16666666666667	0
bin	0.2	0
bin	0.23333333333333	0
bin	0.26666666666667	0
bin	0.3	0
bin	0.33333333333333	0
bin	0.36666666666667	0
bin	0.4	0
bin	0.43333333333333	0
bin	0.46666666666667	0
bin	0.5	0
scalar AODVVANET.vehicle[6].wlan.radio 	bitrate:min 	2000000
attr interpolationmode  sample-hold
attr title  "tx bitrate, min"
attr unit  bps
scalar AODVVANET.vehicle[6].wlan.radio 	bitrate:max 	2000000
attr interpolationmode  sample-hold
attr title  "tx bitrate, max"
attr unit  bps
scalar AODVVANET.vehicle[6].wlan.radio 	bitrate:timeavg 	2000000
attr interpolationmode  sample-hold
attr title  "tx bitrate, timeavg"
attr unit  bps
scalar AODVVANET.vehicle[6].wlan.radio 	radioState:count 	17
attr interpolationmode  sample-hold
attr title  "radio state (enum), count"
scalar AODVVANET.vehicle[7].mobility 	startTime 	27
scalar AODVVANET.vehicle[7].mobility 	totalTime 	109
scalar AODVVANET.vehicle[7].mobility 	stopTime 	110
scalar AODVVANET.vehicle[7].mobility 	minSpeed 	3.8445905906458
scalar AODVVANET.vehicle[7].mobility 	maxSpeed 	13.997692765314
scalar AODVVANET.vehicle[7].mobility 	totalDistance 	1102.61454221
scalar AODVVANET.vehicle[7].udp 	droppedPkBadChecksum:count 	0
attr interpolationmode  none
attr title  "packets dropped (checksum error), count"
scalar AODVVANET.vehicle[7].udp 	droppedPkWrongPort:count 	0
attr interpolationmode  none
attr title  "packets dropped (wrong port), count"
scalar AODVVANET.vehicle[7].udp 	passedUpPk:count 	0
attr interpolationmode  none
attr title  "packets passed up, count"
scalar AODVVANET.vehicle[7].udp 	rcvdPk:count 	0
attr interpolationmode  none
attr source  rcvdPk
attr title  "packets received, count"
scalar AODVVANET.vehicle[7].udp 	rcvdPk:sum(packetBytes) 	0
attr interpolationmode  none
attr source  rcvdPk
attr title  "packets received, sum(packetBytes)"
scalar AODVVANET.vehicle[7].udp 	sentPk:count 	1
attr interpolationmode  none
attr source  sentPk
attr title  "packets sent, count"
scalar AODVVANET.vehicle[7].udp 	sentPk:sum(packetBytes) 	8
attr interpolationmode  none
attr source  sentPk
attr title  "packets sent, sum(packetBytes)"
scalar AODVVANET.vehicle[7].networkLayer.arp 	failedARPResolution:count 	0
attr title  "ARP failed resolutions, count"
scalar AODVVANET.vehicle[7].networkLayer.arp 	completedARPResolution:count 	0
attr title  "ARP completed resolutions, count"
scalar AODVVANET.vehicle[7].networkLayer.arp 	initiatedARPResolution:count 	0
attr title  "ARP initiated resolutions, count"
scalar AODVVANET.vehicle[7].networkLayer.arp 	sentReply:count 	0
attr title  "ARP replies sent, count"
scalar AODVVANET.vehicle[7].networkLayer.arp 	sentReq:count 	0
attr title  "ARP request sent, count"
scalar AODVVANET.vehicle[7].wlan.mgmt 	dataQueueLen:max 	0
attr interpolationmode  sample-hold
attr title  "data queue length, max"
scalar AODVVANET.vehicle[7].wlan.mgmt 	dataQueueLen:timeavg 	0
attr interpolationmode  sample-hold
attr title  "data queue length, timeavg"
scalar AODVVANET.vehicle[7].wlan.mgmt 	dropPkByQueue:count 	0
attr interpolationmode  none
attr source  dropPkByQueue
attr title  "packets dropped by queue, count"
scalar AODVVANET.vehicle[7].wlan.mgmt 	dropPkByQueue:sum(packetBytes) 	0
attr interpolationmode  none
attr source  dropPkByQueue
attr title  "packets dropped by queue, sum(packetBytes)"
scalar AODVVANET.vehicle[7].wlan.mac 	"number of received packets" 	0
scalar AODVVANET.vehicle[7].wlan.mac 	"number of collisions" 	0
scalar AODVVANET.vehicle[7].wlan.mac 	"number of internal collisions" 	0
scalar AODVVANET.vehicle[7].wlan.mac 	"number of retry for AC 0" 	0
scalar AODVVANET.vehicle[7].wlan.mac 	"sent and received bits" 	9424
scalar AODVVANET.vehicle[7].wlan.mac 	"sent packet within AC 0" 	0
scalar AODVVANET.vehicle[7].wlan.mac 	"sent in TXOP " 	0
scalar AODVVANET.vehicle[7].wlan.mac 	"sentWithoutRetry AC 0" 	0
scalar AODVVANET.vehicle[7].wlan.mac 	"numGivenUp AC 0" 	0
scalar AODVVANET.vehicle[7].wlan.mac 	"numDropped AC 0" 	0
scalar AODVVANET.vehicle[7].wlan.mac 	rcvdPkFromHL:count 	19
attr interpolationmode  none
attr source  packetReceivedFromUpper
attr title  "packets received from higher layer, count"
scalar AODVVANET.vehicle[7].wlan.mac 	rcvdPkFromHL:sum(packetBytes) 	1178
attr interpolationmode  none
attr source  packetReceivedFromUpper
attr title  "packets received from higher layer, sum(packetBytes)"
scalar AODVVANET.vehicle[7].wlan.mac 	passedUpPk:count 	21
attr interpolationmode  none
attr source  packetSentToUpper
attr title  "packets passed to higher layer, count"
scalar AODVVANET.vehicle[7].wlan.mac 	passedUpPk:sum(packetBytes) 	1302
attr interpolationmode  none
attr source  packetSentToUpper
attr title  "packets passed to higher layer, sum(packetBytes)"
scalar AODVVANET.vehicle[7].wlan.mac 	rcvdPkFromLL:count 	21
attr interpolationmode  none
attr source  packetReceivedFromLower
attr title  "packets received from lower layer, count"
scalar AODVVANET.vehicle[7].wlan.mac 	rcvdPkFromLL:sum(packetBytes) 	1302
attr interpolationmode  none
attr source  packetReceivedFromLower
attr title  "packets received from lower layer, sum(packetBytes)"
scalar AODVVANET.vehicle[7].wlan.mac 	sentDownPk:count 	19
attr interpolationmode  none
attr source  packetSentToLower
attr title  "packets sent to lower layer, count"
scalar AODVVANET.vehicle[7].wlan.mac 	sentDownPk:sum(packetBytes) 	1178
attr interpolationmode  none
attr source  packetSentToLower
attr title  "packets sent to lower layer, sum(packetBytes)"
scalar AODVVANET.vehicle[7].wlan.radio 	lossRate:min 	-nan
attr interpolationmode  backward-sample-hold
attr title  "packet loss rate, min"
scalar AODVVANET.vehicle[7].wlan.radio 	lossRate:max 	-nan
attr interpolationmode  backward-sample-hold
attr title  "packet loss rate, max"
scalar AODVVANET.vehicle[7].wlan.radio 	lossRate:timeavg 	-nan
attr interpolationmode  backward-sample-hold
attr title  "packet loss rate, timeavg"
statistic AODVVANET.vehicle[7].wlan.radio 	channelNo:histogram
field count 1
field mean 0
field stddev -nan
field sum 0
field sqrsum 0
field min 0
field max 0
attr interpolationmode  sample-hold
attr title  "channel no, histogram"
bin	-INF	0
bin	-0.5	0
bin	-0.46666666666667	0
bin	-0.43333333333333	0
bin	-0.4	0
bin	-0.36666666666667	0
bin	-0.33333333333333	0
bin	-0.3	0
bin	-0.26666666666667	0
bin	-0.23333333333333	0
bin	-0.2	0
bin	-0.16666666666667	0
bin	-0.13333333333333	0
bin	-0.1	0
bin	-0.066666666666667	0
bin	-0.033333333333333	0
bin	0	1
bin	0.033333333333333	0
bin	0.066666666666667	0
bin	0.1	0
bin	0.13333333333333	0
bin	0.16666666666667	0
bin	0.2	0
bin	0.23333333333333	0
bin	0.26666666666667	0
bin	0.3	0
bin	0.33333333333333	0
bin	0.36666666666667	0
bin	0.4	0
bin	0.43333333333333	0
bin	0.46666666666667	0
bin	0.5	0
scalar AODVVANET.vehicle[7].wlan.radio 	bitrate:min 	2000000
attr interpolationmode  sample-hold
attr title  "tx bitrate, min"
attr unit  bps
scalar AODVVANET.vehicle[7].wlan.radio 	bitrate:max 	2000000
attr interpolationmode  sample-hold
attr title  "tx bitrate, max"
attr unit  bps
scalar AODVVANET.vehicle[7].wlan.radio 	bitrate:timeavg 	2000000
attr interpolationmode  sample-hold
attr title  "tx bitrate, timeavg"
attr unit  bps
scalar AODVVANET.vehicle[7].wlan.radio 	radioState:count 	81
attr interpolationmode  sample-hold
attr title  "radio state (enum), count"
scalar AODVVANET.rsu[0].networkLayer.arp 	failedARPResolution:count 	0
attr title  "ARP failed resolutions, count"
scalar AODVVANET.rsu[0].networkLayer.arp 	completedARPResolution:count 	0
attr title  "ARP completed resolutions, count"
scalar AODVVANET.rsu[0].networkLayer.arp 	initiatedARPResolution:count 	0
attr title  "ARP initiated resolutions, count"
scalar AODVVANET.rsu[0].networkLayer.arp 	sentReply:count 	0
attr title  "ARP replies sent, count"
scalar AODVVANET.rsu[0].networkLayer.arp 	sentReq:count 	0
attr title  "ARP request sent, count"
scalar AODVVANET.rsu[0].wlan.mgmt 	dataQueueLen:max 	0
attr interpolationmode  sample-hold
attr title  "data queue length, max"
scalar AODVVANET.rsu[0].wlan.mgmt 	dataQueueLen:timeavg 	0
attr interpolationmode  sample-hold
attr title  "data queue length, timeavg"
scalar AODVVANET.rsu[0].wlan.mgmt 	dropPkByQueue:count 	0
attr interpolationmode  none
attr source  dropPkByQueue
attr title  "packets dropped by queue, count"
scalar AODVVANET.rsu[0].wlan.mgmt 	dropPkByQueue:sum(packetBytes) 	0
attr interpolationmode  none
attr source  dropPkByQueue
attr title  "packets dropped by queue, sum(packetBytes)"
scalar AODVVANET.rsu[0].wlan.mac 	"number of received packets" 	0
scalar AODVVANET.rsu[0].wlan.mac 	"number of collisions" 	0
scalar AODVVANET.rsu[0].wlan.mac 	"number of internal collisions" 	0
scalar AODVVANET.rsu[0].wlan.mac 	"number of retry for AC 0" 	0
scalar AODVVANET.rsu[0].wlan.mac 	"sent and received bits" 	0
scalar AODVVANET.rsu[0].wlan.mac 	"sent packet within AC 0" 	0
scalar AODVVANET.rsu[0].wlan.mac 	"sent in TXOP " 	0
scalar AODVVANET.rsu[0].wlan.mac 	"sentWithoutRetry AC 0" 	0
scalar AODVVANET.rsu[0].wlan.mac 	"numGivenUp AC 0" 	0
scalar AODVVANET.rsu[0].wlan.mac 	"numDropped AC 0" 	0
scalar AODVVANET.rsu[0].wlan.mac 	rcvdPkFromHL:count 	0
attr interpolationmode  none
attr source  packetReceivedFromUpper
attr title  "packets received from higher layer, count"
scalar AODVVANET.rsu[0].wlan.mac 	rcvdPkFromHL:sum(packetBytes) 	0
attr interpolationmode  none
attr source  packetReceivedFromUpper
attr title  "packets received from higher layer, sum(packetBytes)"
scalar AODVVANET.rsu[0].wlan.mac 	passedUpPk:count 	0
attr interpolationmode  none
attr source  packetSentToUpper
attr title  "packets passed to higher layer, count"
scalar AODVVANET.rsu[0].wlan.mac 	passedUpPk:sum(packetBytes) 	0
attr interpolationmode  none
attr source  packetSentToUpper
attr title  "packets passed to higher layer, sum(packetBytes)"
scalar AODVVANET.rsu[0].wlan.mac 	rcvdPkFromLL:count 	0
attr interpolationmode  none
attr source  packetReceivedFromLower
attr title  "packets received from lower layer, count"
scalar AODVVANET.rsu[0].wlan.mac 	rcvdPkFromLL:sum(packetBytes) 	0
attr interpolationmode  none
attr source  packetReceivedFromLower
attr title  "packets received from lower layer, sum(packetBytes)"
scalar AODVVANET.rsu[0].wlan.mac 	sentDownPk:count 	0
attr interpolationmode  none
attr source  packetSentToLower
attr title  "packets sent to lower layer, count"
scalar AODVVANET.rsu[0].wlan.mac 	sentDownPk:sum(packetBytes) 	0
attr interpolationmode  none
attr source  packetSentToLower
attr title  "packets sent to lower layer, sum(packetBytes)"
scalar AODVVANET.rsu[0].wlan.radio 	lossRate:min 	-nan
attr interpolationmode  backward-sample-hold
attr title  "packet loss rate, min"
scalar AODVVANET.rsu[0].wlan.radio 	lossRate:max 	-nan
attr interpolationmode  backward-sample-hold
attr title  "packet loss rate, max"
scalar AODVVANET.rsu[0].wlan.radio 	lossRate:timeavg 	-nan
attr interpolationmode  backward-sample-hold
attr title  "packet loss rate, timeavg"
statistic AODVVANET.rsu[0].wlan.radio 	channelNo:histogram
field count 1
field mean 0
field stddev -nan
field sum 0
field sqrsum 0
field min 0
field max 0
attr interpolationmode  sample-hold
attr title  "channel no, histogram"
bin	-INF	0
bin	-0.5	0
bin	-0.46666666666667	0
bin	-0.43333333333333	0
bin	-0.4	0
bin	-0.36666666666667	0
bin	-0.33333333333333	0
bin	-0.3	0
bin	-0.26666666666667	0
bin	-0.23333333333333	0
bin	-0.2	0
bin	-0.16666666666667	0
bin	-0.13333333333333	0
bin	-0.1	0
bin	-0.066666666666667	0
bin	-0.033333333333333	0
bin	0	1
bin	0.033333333333333	0
bin	0.066666666666667	0
bin	0.1	0
bin	0.13333333333333	0
bin	0.16666666666667	0
bin	0.2	0
bin	0.23333333333333	0
bin	0.26666666666667	0
bin	0.3	0
bin	0.33333333333333	0
bin	0.36666666666667	0
bin	0.4	0
bin	0.43333333333333	0
bin	0.46666666666667	0
bin	0.5	0
scalar AODVVANET.rsu[0].wlan.radio 	bitrate:min 	2000000
attr interpolationmode  sample-hold
attr title  "tx bitrate, min"
attr unit  bps
scalar AODVVANET.rsu[0].wlan.radio 	bitrate:max 	2000000
attr interpolationmode  sample-hold
attr title  "tx bitrate, max"
attr unit  bps
scalar AODVVANET.rsu[0].wlan.radio 	bitrate:timeavg 	2000000
attr interpolationmode  sample-hold
attr title  "tx bitrate, timeavg"
attr unit  bps
scalar AODVVANET.rsu[0].wlan.radio 	radioState:count 	1
attr interpolationmode  sample-hold
attr title  "radio state (enum), count"
