version 2
run AODVVANET-Simple-100-0-20150827-23:09:39-4409
attr configname AODVVANET-Simple-100
attr datetime 20150827-23:09:39
attr experiment AODVVANET-Simple-100
attr inifile omnetpp.ini
attr iterationvars ""
attr iterationvars2 $repetition=0
attr measurement ""
attr network AODVVANET
attr processid 4409
attr repetition 0
attr replication #0
attr resultdir results
attr runnumber 0
attr seedset 0

scalar AODVVANET.vehicle[2].mobility 	startTime 	13
scalar AODVVANET.vehicle[2].mobility 	totalTime 	86
scalar AODVVANET.vehicle[2].mobility 	stopTime 	87
scalar AODVVANET.vehicle[2].mobility 	minSpeed 	3.9312616036609
scalar AODVVANET.vehicle[2].mobility 	maxSpeed 	13.995071483953
scalar AODVVANET.vehicle[2].mobility 	totalDistance 	981.09075956279
scalar AODVVANET.vehicle[2].udp 	droppedPkBadChecksum:count 	0
attr interpolationmode  none
attr title  "packets dropped (checksum error), count"
scalar AODVVANET.vehicle[2].udp 	droppedPkWrongPort:count 	0
attr interpolationmode  none
attr title  "packets dropped (wrong port), count"
scalar AODVVANET.vehicle[2].udp 	passedUpPk:count 	0
attr interpolationmode  none
attr title  "packets passed up, count"
scalar AODVVANET.vehicle[2].udp 	rcvdPk:count 	0
attr interpolationmode  none
attr source  rcvdPk
attr title  "packets received, count"
scalar AODVVANET.vehicle[2].udp 	rcvdPk:sum(packetBytes) 	0
attr interpolationmode  none
attr source  rcvdPk
attr title  "packets received, sum(packetBytes)"
scalar AODVVANET.vehicle[2].udp 	sentPk:count 	1
attr interpolationmode  none
attr source  sentPk
attr title  "packets sent, count"
scalar AODVVANET.vehicle[2].udp 	sentPk:sum(packetBytes) 	8
attr interpolationmode  none
attr source  sentPk
attr title  "packets sent, sum(packetBytes)"
scalar AODVVANET.vehicle[2].networkLayer.arp 	failedARPResolution:count 	0
attr title  "ARP failed resolutions, count"
scalar AODVVANET.vehicle[2].networkLayer.arp 	completedARPResolution:count 	0
attr title  "ARP completed resolutions, count"
scalar AODVVANET.vehicle[2].networkLayer.arp 	initiatedARPResolution:count 	0
attr title  "ARP initiated resolutions, count"
scalar AODVVANET.vehicle[2].networkLayer.arp 	sentReply:count 	0
attr title  "ARP replies sent, count"
scalar AODVVANET.vehicle[2].networkLayer.arp 	sentReq:count 	0
attr title  "ARP request sent, count"
scalar AODVVANET.vehicle[2].wlan.mgmt 	dataQueueLen:max 	0
attr interpolationmode  sample-hold
attr title  "data queue length, max"
scalar AODVVANET.vehicle[2].wlan.mgmt 	dataQueueLen:timeavg 	0
attr interpolationmode  sample-hold
attr title  "data queue length, timeavg"
scalar AODVVANET.vehicle[2].wlan.mgmt 	dropPkByQueue:count 	0
attr interpolationmode  none
attr source  dropPkByQueue
attr title  "packets dropped by queue, count"
scalar AODVVANET.vehicle[2].wlan.mgmt 	dropPkByQueue:sum(packetBytes) 	0
attr interpolationmode  none
attr source  dropPkByQueue
attr title  "packets dropped by queue, sum(packetBytes)"
scalar AODVVANET.vehicle[2].wlan.mac 	"number of received packets" 	0
scalar AODVVANET.vehicle[2].wlan.mac 	"number of collisions" 	0
scalar AODVVANET.vehicle[2].wlan.mac 	"number of internal collisions" 	0
scalar AODVVANET.vehicle[2].wlan.mac 	"number of retry for AC 0" 	0
scalar AODVVANET.vehicle[2].wlan.mac 	"sent and received bits" 	2976
scalar AODVVANET.vehicle[2].wlan.mac 	"sent packet within AC 0" 	0
scalar AODVVANET.vehicle[2].wlan.mac 	"sent in TXOP " 	0
scalar AODVVANET.vehicle[2].wlan.mac 	"sentWithoutRetry AC 0" 	0
scalar AODVVANET.vehicle[2].wlan.mac 	"numGivenUp AC 0" 	0
scalar AODVVANET.vehicle[2].wlan.mac 	"numDropped AC 0" 	0
scalar AODVVANET.vehicle[2].wlan.mac 	rcvdPkFromHL:count 	6
attr interpolationmode  none
attr source  packetReceivedFromUpper
attr title  "packets received from higher layer, count"
scalar AODVVANET.vehicle[2].wlan.mac 	rcvdPkFromHL:sum(packetBytes) 	372
attr interpolationmode  none
attr source  packetReceivedFromUpper
attr title  "packets received from higher layer, sum(packetBytes)"
scalar AODVVANET.vehicle[2].wlan.mac 	passedUpPk:count 	0
attr interpolationmode  none
attr source  packetSentToUpper
attr title  "packets passed to higher layer, count"
scalar AODVVANET.vehicle[2].wlan.mac 	passedUpPk:sum(packetBytes) 	0
attr interpolationmode  none
attr source  packetSentToUpper
attr title  "packets passed to higher layer, sum(packetBytes)"
scalar AODVVANET.vehicle[2].wlan.mac 	rcvdPkFromLL:count 	0
attr interpolationmode  none
attr source  packetReceivedFromLower
attr title  "packets received from lower layer, count"
scalar AODVVANET.vehicle[2].wlan.mac 	rcvdPkFromLL:sum(packetBytes) 	0
attr interpolationmode  none
attr source  packetReceivedFromLower
attr title  "packets received from lower layer, sum(packetBytes)"
scalar AODVVANET.vehicle[2].wlan.mac 	sentDownPk:count 	6
attr interpolationmode  none
attr source  packetSentToLower
attr title  "packets sent to lower layer, count"
scalar AODVVANET.vehicle[2].wlan.mac 	sentDownPk:sum(packetBytes) 	372
attr interpolationmode  none
attr source  packetSentToLower
attr title  "packets sent to lower layer, sum(packetBytes)"
scalar AODVVANET.vehicle[2].wlan.radio 	lossRate:min 	-nan
attr interpolationmode  backward-sample-hold
attr title  "packet loss rate, min"
scalar AODVVANET.vehicle[2].wlan.radio 	lossRate:max 	-nan
attr interpolationmode  backward-sample-hold
attr title  "packet loss rate, max"
scalar AODVVANET.vehicle[2].wlan.radio 	lossRate:timeavg 	-nan
attr interpolationmode  backward-sample-hold
attr title  "packet loss rate, timeavg"
statistic AODVVANET.vehicle[2].wlan.radio 	channelNo:histogram
field count 1
field mean 0
field stddev -nan
field sum 0
field sqrsum 0
field min 0
field max 0
attr interpolationmode  sample-hold
attr title  "channel no, histogram"
bin	-INF	0
bin	-0.5	0
bin	-0.46666666666667	0
bin	-0.43333333333333	0
bin	-0.4	0
bin	-0.36666666666667	0
bin	-0.33333333333333	0
bin	-0.3	0
bin	-0.26666666666667	0
bin	-0.23333333333333	0
bin	-0.2	0
bin	-0.16666666666667	0
bin	-0.13333333333333	0
bin	-0.1	0
bin	-0.066666666666667	0
bin	-0.033333333333333	0
bin	0	1
bin	0.033333333333333	0
bin	0.066666666666667	0
bin	0.1	0
bin	0.13333333333333	0
bin	0.16666666666667	0
bin	0.2	0
bin	0.23333333333333	0
bin	0.26666666666667	0
bin	0.3	0
bin	0.33333333333333	0
bin	0.36666666666667	0
bin	0.4	0
bin	0.43333333333333	0
bin	0.46666666666667	0
bin	0.5	0
scalar AODVVANET.vehicle[2].wlan.radio 	bitrate:min 	2000000
attr interpolationmode  sample-hold
attr title  "tx bitrate, min"
attr unit  bps
scalar AODVVANET.vehicle[2].wlan.radio 	bitrate:max 	2000000
attr interpolationmode  sample-hold
attr title  "tx bitrate, max"
attr unit  bps
scalar AODVVANET.vehicle[2].wlan.radio 	bitrate:timeavg 	2000000
attr interpolationmode  sample-hold
attr title  "tx bitrate, timeavg"
attr unit  bps
scalar AODVVANET.vehicle[2].wlan.radio 	radioState:count 	13
attr interpolationmode  sample-hold
attr title  "radio state (enum), count"
scalar AODVVANET.vehicle[2] 	statPacketReceived:count 	0
scalar AODVVANET.vehicle[2] 	statPacketSent:count 	2
scalar AODVVANET.vehicle[10].mobility 	startTime 	40
scalar AODVVANET.vehicle[10].mobility 	totalTime 	113
scalar AODVVANET.vehicle[10].mobility 	stopTime 	114
scalar AODVVANET.vehicle[10].mobility 	minSpeed 	3.8461734553984
scalar AODVVANET.vehicle[10].mobility 	maxSpeed 	13.999465401182
scalar AODVVANET.vehicle[10].mobility 	totalDistance 	979.44015601718
scalar AODVVANET.vehicle[10].udp 	droppedPkBadChecksum:count 	0
attr interpolationmode  none
attr title  "packets dropped (checksum error), count"
scalar AODVVANET.vehicle[10].udp 	droppedPkWrongPort:count 	0
attr interpolationmode  none
attr title  "packets dropped (wrong port), count"
scalar AODVVANET.vehicle[10].udp 	passedUpPk:count 	0
attr interpolationmode  none
attr title  "packets passed up, count"
scalar AODVVANET.vehicle[10].udp 	rcvdPk:count 	0
attr interpolationmode  none
attr source  rcvdPk
attr title  "packets received, count"
scalar AODVVANET.vehicle[10].udp 	rcvdPk:sum(packetBytes) 	0
attr interpolationmode  none
attr source  rcvdPk
attr title  "packets received, sum(packetBytes)"
scalar AODVVANET.vehicle[10].udp 	sentPk:count 	0
attr interpolationmode  none
attr source  sentPk
attr title  "packets sent, count"
scalar AODVVANET.vehicle[10].udp 	sentPk:sum(packetBytes) 	0
attr interpolationmode  none
attr source  sentPk
attr title  "packets sent, sum(packetBytes)"
scalar AODVVANET.vehicle[10].networkLayer.arp 	failedARPResolution:count 	0
attr title  "ARP failed resolutions, count"
scalar AODVVANET.vehicle[10].networkLayer.arp 	completedARPResolution:count 	0
attr title  "ARP completed resolutions, count"
scalar AODVVANET.vehicle[10].networkLayer.arp 	initiatedARPResolution:count 	0
attr title  "ARP initiated resolutions, count"
scalar AODVVANET.vehicle[10].networkLayer.arp 	sentReply:count 	0
attr title  "ARP replies sent, count"
scalar AODVVANET.vehicle[10].networkLayer.arp 	sentReq:count 	0
attr title  "ARP request sent, count"
scalar AODVVANET.vehicle[10].wlan.mgmt 	dataQueueLen:max 	0
attr interpolationmode  sample-hold
attr title  "data queue length, max"
scalar AODVVANET.vehicle[10].wlan.mgmt 	dataQueueLen:timeavg 	0
attr interpolationmode  sample-hold
attr title  "data queue length, timeavg"
scalar AODVVANET.vehicle[10].wlan.mgmt 	dropPkByQueue:count 	0
attr interpolationmode  none
attr source  dropPkByQueue
attr title  "packets dropped by queue, count"
scalar AODVVANET.vehicle[10].wlan.mgmt 	dropPkByQueue:sum(packetBytes) 	0
attr interpolationmode  none
attr source  dropPkByQueue
attr title  "packets dropped by queue, sum(packetBytes)"
scalar AODVVANET.vehicle[10].wlan.mac 	"number of received packets" 	0
scalar AODVVANET.vehicle[10].wlan.mac 	"number of collisions" 	0
scalar AODVVANET.vehicle[10].wlan.mac 	"number of internal collisions" 	0
scalar AODVVANET.vehicle[10].wlan.mac 	"number of retry for AC 0" 	0
scalar AODVVANET.vehicle[10].wlan.mac 	"sent and received bits" 	2976
scalar AODVVANET.vehicle[10].wlan.mac 	"sent packet within AC 0" 	0
scalar AODVVANET.vehicle[10].wlan.mac 	"sent in TXOP " 	0
scalar AODVVANET.vehicle[10].wlan.mac 	"sentWithoutRetry AC 0" 	0
scalar AODVVANET.vehicle[10].wlan.mac 	"numGivenUp AC 0" 	0
scalar AODVVANET.vehicle[10].wlan.mac 	"numDropped AC 0" 	0
scalar AODVVANET.vehicle[10].wlan.mac 	rcvdPkFromHL:count 	6
attr interpolationmode  none
attr source  packetReceivedFromUpper
attr title  "packets received from higher layer, count"
scalar AODVVANET.vehicle[10].wlan.mac 	rcvdPkFromHL:sum(packetBytes) 	372
attr interpolationmode  none
attr source  packetReceivedFromUpper
attr title  "packets received from higher layer, sum(packetBytes)"
scalar AODVVANET.vehicle[10].wlan.mac 	passedUpPk:count 	6
attr interpolationmode  none
attr source  packetSentToUpper
attr title  "packets passed to higher layer, count"
scalar AODVVANET.vehicle[10].wlan.mac 	passedUpPk:sum(packetBytes) 	372
attr interpolationmode  none
attr source  packetSentToUpper
attr title  "packets passed to higher layer, sum(packetBytes)"
scalar AODVVANET.vehicle[10].wlan.mac 	rcvdPkFromLL:count 	6
attr interpolationmode  none
attr source  packetReceivedFromLower
attr title  "packets received from lower layer, count"
scalar AODVVANET.vehicle[10].wlan.mac 	rcvdPkFromLL:sum(packetBytes) 	372
attr interpolationmode  none
attr source  packetReceivedFromLower
attr title  "packets received from lower layer, sum(packetBytes)"
scalar AODVVANET.vehicle[10].wlan.mac 	sentDownPk:count 	6
attr interpolationmode  none
attr source  packetSentToLower
attr title  "packets sent to lower layer, count"
scalar AODVVANET.vehicle[10].wlan.mac 	sentDownPk:sum(packetBytes) 	372
attr interpolationmode  none
attr source  packetSentToLower
attr title  "packets sent to lower layer, sum(packetBytes)"
scalar AODVVANET.vehicle[10].wlan.radio 	lossRate:min 	-nan
attr interpolationmode  backward-sample-hold
attr title  "packet loss rate, min"
scalar AODVVANET.vehicle[10].wlan.radio 	lossRate:max 	-nan
attr interpolationmode  backward-sample-hold
attr title  "packet loss rate, max"
scalar AODVVANET.vehicle[10].wlan.radio 	lossRate:timeavg 	-nan
attr interpolationmode  backward-sample-hold
attr title  "packet loss rate, timeavg"
statistic AODVVANET.vehicle[10].wlan.radio 	channelNo:histogram
field count 1
field mean 0
field stddev -nan
field sum 0
field sqrsum 0
field min 0
field max 0
attr interpolationmode  sample-hold
attr title  "channel no, histogram"
bin	-INF	0
bin	-0.5	0
bin	-0.46666666666667	0
bin	-0.43333333333333	0
bin	-0.4	0
bin	-0.36666666666667	0
bin	-0.33333333333333	0
bin	-0.3	0
bin	-0.26666666666667	0
bin	-0.23333333333333	0
bin	-0.2	0
bin	-0.16666666666667	0
bin	-0.13333333333333	0
bin	-0.1	0
bin	-0.066666666666667	0
bin	-0.033333333333333	0
bin	0	1
bin	0.033333333333333	0
bin	0.066666666666667	0
bin	0.1	0
bin	0.13333333333333	0
bin	0.16666666666667	0
bin	0.2	0
bin	0.23333333333333	0
bin	0.26666666666667	0
bin	0.3	0
bin	0.33333333333333	0
bin	0.36666666666667	0
bin	0.4	0
bin	0.43333333333333	0
bin	0.46666666666667	0
bin	0.5	0
scalar AODVVANET.vehicle[10].wlan.radio 	bitrate:min 	2000000
attr interpolationmode  sample-hold
attr title  "tx bitrate, min"
attr unit  bps
scalar AODVVANET.vehicle[10].wlan.radio 	bitrate:max 	2000000
attr interpolationmode  sample-hold
attr title  "tx bitrate, max"
attr unit  bps
scalar AODVVANET.vehicle[10].wlan.radio 	bitrate:timeavg 	2000000
attr interpolationmode  sample-hold
attr title  "tx bitrate, timeavg"
attr unit  bps
scalar AODVVANET.vehicle[10].wlan.radio 	radioState:count 	25
attr interpolationmode  sample-hold
attr title  "radio state (enum), count"
scalar AODVVANET.vehicle[10] 	statPacketReceived:count 	0
scalar AODVVANET.vehicle[10] 	statPacketSent:count 	2
scalar AODVVANET.vehicle[12].mobility 	startTime 	48
scalar AODVVANET.vehicle[12].mobility 	totalTime 	121
scalar AODVVANET.vehicle[12].mobility 	stopTime 	122
scalar AODVVANET.vehicle[12].mobility 	minSpeed 	4.206263465311
scalar AODVVANET.vehicle[12].mobility 	maxSpeed 	13.99883604045
scalar AODVVANET.vehicle[12].mobility 	totalDistance 	981.68101605634
scalar AODVVANET.vehicle[12].udp 	droppedPkBadChecksum:count 	0
attr interpolationmode  none
attr title  "packets dropped (checksum error), count"
scalar AODVVANET.vehicle[12].udp 	droppedPkWrongPort:count 	0
attr interpolationmode  none
attr title  "packets dropped (wrong port), count"
scalar AODVVANET.vehicle[12].udp 	passedUpPk:count 	0
attr interpolationmode  none
attr title  "packets passed up, count"
scalar AODVVANET.vehicle[12].udp 	rcvdPk:count 	0
attr interpolationmode  none
attr source  rcvdPk
attr title  "packets received, count"
scalar AODVVANET.vehicle[12].udp 	rcvdPk:sum(packetBytes) 	0
attr interpolationmode  none
attr source  rcvdPk
attr title  "packets received, sum(packetBytes)"
scalar AODVVANET.vehicle[12].udp 	sentPk:count 	1
attr interpolationmode  none
attr source  sentPk
attr title  "packets sent, count"
scalar AODVVANET.vehicle[12].udp 	sentPk:sum(packetBytes) 	8
attr interpolationmode  none
attr source  sentPk
attr title  "packets sent, sum(packetBytes)"
scalar AODVVANET.vehicle[12].networkLayer.arp 	failedARPResolution:count 	1
attr title  "ARP failed resolutions, count"
scalar AODVVANET.vehicle[12].networkLayer.arp 	completedARPResolution:count 	10
attr title  "ARP completed resolutions, count"
scalar AODVVANET.vehicle[12].networkLayer.arp 	initiatedARPResolution:count 	4
attr title  "ARP initiated resolutions, count"
scalar AODVVANET.vehicle[12].networkLayer.arp 	sentReply:count 	1
attr title  "ARP replies sent, count"
scalar AODVVANET.vehicle[12].networkLayer.arp 	sentReq:count 	7
attr title  "ARP request sent, count"
scalar AODVVANET.vehicle[12].wlan.mgmt 	dataQueueLen:max 	0
attr interpolationmode  sample-hold
attr title  "data queue length, max"
scalar AODVVANET.vehicle[12].wlan.mgmt 	dataQueueLen:timeavg 	0
attr interpolationmode  sample-hold
attr title  "data queue length, timeavg"
scalar AODVVANET.vehicle[12].wlan.mgmt 	dropPkByQueue:count 	0
attr interpolationmode  none
attr source  dropPkByQueue
attr title  "packets dropped by queue, count"
scalar AODVVANET.vehicle[12].wlan.mgmt 	dropPkByQueue:sum(packetBytes) 	0
attr interpolationmode  none
attr source  dropPkByQueue
attr title  "packets dropped by queue, sum(packetBytes)"
scalar AODVVANET.vehicle[12].wlan.mac 	"number of received packets" 	8
scalar AODVVANET.vehicle[12].wlan.mac 	"number of collisions" 	6
scalar AODVVANET.vehicle[12].wlan.mac 	"number of internal collisions" 	0
scalar AODVVANET.vehicle[12].wlan.mac 	"number of retry for AC 0" 	0
scalar AODVVANET.vehicle[12].wlan.mac 	"sent and received bits" 	12176
scalar AODVVANET.vehicle[12].wlan.mac 	"sent packet within AC 0" 	8
scalar AODVVANET.vehicle[12].wlan.mac 	"sent in TXOP " 	0
scalar AODVVANET.vehicle[12].wlan.mac 	"sentWithoutRetry AC 0" 	8
scalar AODVVANET.vehicle[12].wlan.mac 	"numGivenUp AC 0" 	0
scalar AODVVANET.vehicle[12].wlan.mac 	"numDropped AC 0" 	0
scalar AODVVANET.vehicle[12].wlan.mac 	rcvdPkFromHL:count 	23
attr interpolationmode  none
attr source  packetReceivedFromUpper
attr title  "packets received from higher layer, count"
scalar AODVVANET.vehicle[12].wlan.mac 	rcvdPkFromHL:sum(packetBytes) 	1522
attr interpolationmode  none
attr source  packetReceivedFromUpper
attr title  "packets received from higher layer, sum(packetBytes)"
scalar AODVVANET.vehicle[12].wlan.mac 	passedUpPk:count 	66
attr interpolationmode  none
attr source  packetSentToUpper
attr title  "packets passed to higher layer, count"
scalar AODVVANET.vehicle[12].wlan.mac 	passedUpPk:sum(packetBytes) 	4212
attr interpolationmode  none
attr source  packetSentToUpper
attr title  "packets passed to higher layer, sum(packetBytes)"
scalar AODVVANET.vehicle[12].wlan.mac 	rcvdPkFromLL:count 	106
attr interpolationmode  none
attr source  packetReceivedFromLower
attr title  "packets received from lower layer, count"
scalar AODVVANET.vehicle[12].wlan.mac 	rcvdPkFromLL:sum(packetBytes) 	5676
attr interpolationmode  none
attr source  packetReceivedFromLower
attr title  "packets received from lower layer, sum(packetBytes)"
scalar AODVVANET.vehicle[12].wlan.mac 	sentDownPk:count 	31
attr interpolationmode  none
attr source  packetSentToLower
attr title  "packets sent to lower layer, count"
scalar AODVVANET.vehicle[12].wlan.mac 	sentDownPk:sum(packetBytes) 	1634
attr interpolationmode  none
attr source  packetSentToLower
attr title  "packets sent to lower layer, sum(packetBytes)"
scalar AODVVANET.vehicle[12].wlan.radio 	lossRate:min 	0.04
attr interpolationmode  backward-sample-hold
attr title  "packet loss rate, min"
scalar AODVVANET.vehicle[12].wlan.radio 	lossRate:max 	0.06
attr interpolationmode  backward-sample-hold
attr title  "packet loss rate, max"
scalar AODVVANET.vehicle[12].wlan.radio 	lossRate:timeavg 	0.042840907875264
attr interpolationmode  backward-sample-hold
attr title  "packet loss rate, timeavg"
statistic AODVVANET.vehicle[12].wlan.radio 	channelNo:histogram
field count 1
field mean 0
field stddev -nan
field sum 0
field sqrsum 0
field min 0
field max 0
attr interpolationmode  sample-hold
attr title  "channel no, histogram"
bin	-INF	0
bin	-0.5	0
bin	-0.46666666666667	0
bin	-0.43333333333333	0
bin	-0.4	0
bin	-0.36666666666667	0
bin	-0.33333333333333	0
bin	-0.3	0
bin	-0.26666666666667	0
bin	-0.23333333333333	0
bin	-0.2	0
bin	-0.16666666666667	0
bin	-0.13333333333333	0
bin	-0.1	0
bin	-0.066666666666667	0
bin	-0.033333333333333	0
bin	0	1
bin	0.033333333333333	0
bin	0.066666666666667	0
bin	0.1	0
bin	0.13333333333333	0
bin	0.16666666666667	0
bin	0.2	0
bin	0.23333333333333	0
bin	0.26666666666667	0
bin	0.3	0
bin	0.33333333333333	0
bin	0.36666666666667	0
bin	0.4	0
bin	0.43333333333333	0
bin	0.46666666666667	0
bin	0.5	0
scalar AODVVANET.vehicle[12].wlan.radio 	bitrate:min 	2000000
attr interpolationmode  sample-hold
attr title  "tx bitrate, min"
attr unit  bps
scalar AODVVANET.vehicle[12].wlan.radio 	bitrate:max 	2000000
attr interpolationmode  sample-hold
attr title  "tx bitrate, max"
attr unit  bps
scalar AODVVANET.vehicle[12].wlan.radio 	bitrate:timeavg 	2000000
attr interpolationmode  sample-hold
attr title  "tx bitrate, timeavg"
attr unit  bps
scalar AODVVANET.vehicle[12].wlan.radio 	radioState:count 	275
attr interpolationmode  sample-hold
attr title  "radio state (enum), count"
scalar AODVVANET.vehicle[12] 	statPacketReceived:count 	0
scalar AODVVANET.vehicle[12] 	statPacketSent:count 	2
scalar AODVVANET.vehicle[14].mobility 	startTime 	52
scalar AODVVANET.vehicle[14].mobility 	totalTime 	127
scalar AODVVANET.vehicle[14].mobility 	stopTime 	128
scalar AODVVANET.vehicle[14].mobility 	minSpeed 	3.85874693633
scalar AODVVANET.vehicle[14].mobility 	maxSpeed 	13.999713971398
scalar AODVVANET.vehicle[14].mobility 	totalDistance 	980.97508409954
scalar AODVVANET.vehicle[14].udp 	droppedPkBadChecksum:count 	0
attr interpolationmode  none
attr title  "packets dropped (checksum error), count"
scalar AODVVANET.vehicle[14].udp 	droppedPkWrongPort:count 	0
attr interpolationmode  none
attr title  "packets dropped (wrong port), count"
scalar AODVVANET.vehicle[14].udp 	passedUpPk:count 	0
attr interpolationmode  none
attr title  "packets passed up, count"
scalar AODVVANET.vehicle[14].udp 	rcvdPk:count 	0
attr interpolationmode  none
attr source  rcvdPk
attr title  "packets received, count"
scalar AODVVANET.vehicle[14].udp 	rcvdPk:sum(packetBytes) 	0
attr interpolationmode  none
attr source  rcvdPk
attr title  "packets received, sum(packetBytes)"
scalar AODVVANET.vehicle[14].udp 	sentPk:count 	1
attr interpolationmode  none
attr source  sentPk
attr title  "packets sent, count"
scalar AODVVANET.vehicle[14].udp 	sentPk:sum(packetBytes) 	8
attr interpolationmode  none
attr source  sentPk
attr title  "packets sent, sum(packetBytes)"
scalar AODVVANET.vehicle[14].networkLayer.arp 	failedARPResolution:count 	0
attr title  "ARP failed resolutions, count"
scalar AODVVANET.vehicle[14].networkLayer.arp 	completedARPResolution:count 	0
attr title  "ARP completed resolutions, count"
scalar AODVVANET.vehicle[14].networkLayer.arp 	initiatedARPResolution:count 	0
attr title  "ARP initiated resolutions, count"
scalar AODVVANET.vehicle[14].networkLayer.arp 	sentReply:count 	0
attr title  "ARP replies sent, count"
scalar AODVVANET.vehicle[14].networkLayer.arp 	sentReq:count 	0
attr title  "ARP request sent, count"
scalar AODVVANET.vehicle[14].wlan.mgmt 	dataQueueLen:max 	0
attr interpolationmode  sample-hold
attr title  "data queue length, max"
scalar AODVVANET.vehicle[14].wlan.mgmt 	dataQueueLen:timeavg 	0
attr interpolationmode  sample-hold
attr title  "data queue length, timeavg"
scalar AODVVANET.vehicle[14].wlan.mgmt 	dropPkByQueue:count 	0
attr interpolationmode  none
attr source  dropPkByQueue
attr title  "packets dropped by queue, count"
scalar AODVVANET.vehicle[14].wlan.mgmt 	dropPkByQueue:sum(packetBytes) 	0
attr interpolationmode  none
attr source  dropPkByQueue
attr title  "packets dropped by queue, sum(packetBytes)"
scalar AODVVANET.vehicle[14].wlan.mac 	"number of received packets" 	0
scalar AODVVANET.vehicle[14].wlan.mac 	"number of collisions" 	0
scalar AODVVANET.vehicle[14].wlan.mac 	"number of internal collisions" 	0
scalar AODVVANET.vehicle[14].wlan.mac 	"number of retry for AC 0" 	0
scalar AODVVANET.vehicle[14].wlan.mac 	"sent and received bits" 	2976
scalar AODVVANET.vehicle[14].wlan.mac 	"sent packet within AC 0" 	0
scalar AODVVANET.vehicle[14].wlan.mac 	"sent in TXOP " 	0
scalar AODVVANET.vehicle[14].wlan.mac 	"sentWithoutRetry AC 0" 	0
scalar AODVVANET.vehicle[14].wlan.mac 	"numGivenUp AC 0" 	0
scalar AODVVANET.vehicle[14].wlan.mac 	"numDropped AC 0" 	0
scalar AODVVANET.vehicle[14].wlan.mac 	rcvdPkFromHL:count 	6
attr interpolationmode  none
attr source  packetReceivedFromUpper
attr title  "packets received from higher layer, count"
scalar AODVVANET.vehicle[14].wlan.mac 	rcvdPkFromHL:sum(packetBytes) 	372
attr interpolationmode  none
attr source  packetReceivedFromUpper
attr title  "packets received from higher layer, sum(packetBytes)"
scalar AODVVANET.vehicle[14].wlan.mac 	passedUpPk:count 	7
attr interpolationmode  none
attr source  packetSentToUpper
attr title  "packets passed to higher layer, count"
scalar AODVVANET.vehicle[14].wlan.mac 	passedUpPk:sum(packetBytes) 	434
attr interpolationmode  none
attr source  packetSentToUpper
attr title  "packets passed to higher layer, sum(packetBytes)"
scalar AODVVANET.vehicle[14].wlan.mac 	rcvdPkFromLL:count 	7
attr interpolationmode  none
attr source  packetReceivedFromLower
attr title  "packets received from lower layer, count"
scalar AODVVANET.vehicle[14].wlan.mac 	rcvdPkFromLL:sum(packetBytes) 	434
attr interpolationmode  none
attr source  packetReceivedFromLower
attr title  "packets received from lower layer, sum(packetBytes)"
scalar AODVVANET.vehicle[14].wlan.mac 	sentDownPk:count 	6
attr interpolationmode  none
attr source  packetSentToLower
attr title  "packets sent to lower layer, count"
scalar AODVVANET.vehicle[14].wlan.mac 	sentDownPk:sum(packetBytes) 	372
attr interpolationmode  none
attr source  packetSentToLower
attr title  "packets sent to lower layer, sum(packetBytes)"
scalar AODVVANET.vehicle[14].wlan.radio 	lossRate:min 	-nan
attr interpolationmode  backward-sample-hold
attr title  "packet loss rate, min"
scalar AODVVANET.vehicle[14].wlan.radio 	lossRate:max 	-nan
attr interpolationmode  backward-sample-hold
attr title  "packet loss rate, max"
scalar AODVVANET.vehicle[14].wlan.radio 	lossRate:timeavg 	-nan
attr interpolationmode  backward-sample-hold
attr title  "packet loss rate, timeavg"
statistic AODVVANET.vehicle[14].wlan.radio 	channelNo:histogram
field count 1
field mean 0
field stddev -nan
field sum 0
field sqrsum 0
field min 0
field max 0
attr interpolationmode  sample-hold
attr title  "channel no, histogram"
bin	-INF	0
bin	-0.5	0
bin	-0.46666666666667	0
bin	-0.43333333333333	0
bin	-0.4	0
bin	-0.36666666666667	0
bin	-0.33333333333333	0
bin	-0.3	0
bin	-0.26666666666667	0
bin	-0.23333333333333	0
bin	-0.2	0
bin	-0.16666666666667	0
bin	-0.13333333333333	0
bin	-0.1	0
bin	-0.066666666666667	0
bin	-0.033333333333333	0
bin	0	1
bin	0.033333333333333	0
bin	0.066666666666667	0
bin	0.1	0
bin	0.13333333333333	0
bin	0.16666666666667	0
bin	0.2	0
bin	0.23333333333333	0
bin	0.26666666666667	0
bin	0.3	0
bin	0.33333333333333	0
bin	0.36666666666667	0
bin	0.4	0
bin	0.43333333333333	0
bin	0.46666666666667	0
bin	0.5	0
scalar AODVVANET.vehicle[14].wlan.radio 	bitrate:min 	2000000
attr interpolationmode  sample-hold
attr title  "tx bitrate, min"
attr unit  bps
scalar AODVVANET.vehicle[14].wlan.radio 	bitrate:max 	2000000
attr interpolationmode  sample-hold
attr title  "tx bitrate, max"
attr unit  bps
scalar AODVVANET.vehicle[14].wlan.radio 	bitrate:timeavg 	2000000
attr interpolationmode  sample-hold
attr title  "tx bitrate, timeavg"
attr unit  bps
scalar AODVVANET.vehicle[14].wlan.radio 	radioState:count 	27
attr interpolationmode  sample-hold
attr title  "radio state (enum), count"
scalar AODVVANET.vehicle[14] 	statPacketReceived:count 	0
scalar AODVVANET.vehicle[14] 	statPacketSent:count 	2
scalar AODVVANET.vehicle[5].mobility 	startTime 	22
scalar AODVVANET.vehicle[5].mobility 	totalTime 	131
scalar AODVVANET.vehicle[5].mobility 	stopTime 	132
scalar AODVVANET.vehicle[5].mobility 	minSpeed 	4.0015480331578
scalar AODVVANET.vehicle[5].mobility 	maxSpeed 	13.999843015617
scalar AODVVANET.vehicle[5].mobility 	totalDistance 	1480.8104960112
scalar AODVVANET.vehicle[5].udp 	droppedPkBadChecksum:count 	0
attr interpolationmode  none
attr title  "packets dropped (checksum error), count"
scalar AODVVANET.vehicle[5].udp 	droppedPkWrongPort:count 	0
attr interpolationmode  none
attr title  "packets dropped (wrong port), count"
scalar AODVVANET.vehicle[5].udp 	passedUpPk:count 	0
attr interpolationmode  none
attr title  "packets passed up, count"
scalar AODVVANET.vehicle[5].udp 	rcvdPk:count 	0
attr interpolationmode  none
attr source  rcvdPk
attr title  "packets received, count"
scalar AODVVANET.vehicle[5].udp 	rcvdPk:sum(packetBytes) 	0
attr interpolationmode  none
attr source  rcvdPk
attr title  "packets received, sum(packetBytes)"
scalar AODVVANET.vehicle[5].udp 	sentPk:count 	1
attr interpolationmode  none
attr source  sentPk
attr title  "packets sent, count"
scalar AODVVANET.vehicle[5].udp 	sentPk:sum(packetBytes) 	8
attr interpolationmode  none
attr source  sentPk
attr title  "packets sent, sum(packetBytes)"
scalar AODVVANET.vehicle[5].networkLayer.arp 	failedARPResolution:count 	0
attr title  "ARP failed resolutions, count"
scalar AODVVANET.vehicle[5].networkLayer.arp 	completedARPResolution:count 	0
attr title  "ARP completed resolutions, count"
scalar AODVVANET.vehicle[5].networkLayer.arp 	initiatedARPResolution:count 	0
attr title  "ARP initiated resolutions, count"
scalar AODVVANET.vehicle[5].networkLayer.arp 	sentReply:count 	0
attr title  "ARP replies sent, count"
scalar AODVVANET.vehicle[5].networkLayer.arp 	sentReq:count 	0
attr title  "ARP request sent, count"
scalar AODVVANET.vehicle[5].wlan.mgmt 	dataQueueLen:max 	0
attr interpolationmode  sample-hold
attr title  "data queue length, max"
scalar AODVVANET.vehicle[5].wlan.mgmt 	dataQueueLen:timeavg 	0
attr interpolationmode  sample-hold
attr title  "data queue length, timeavg"
scalar AODVVANET.vehicle[5].wlan.mgmt 	dropPkByQueue:count 	0
attr interpolationmode  none
attr source  dropPkByQueue
attr title  "packets dropped by queue, count"
scalar AODVVANET.vehicle[5].wlan.mgmt 	dropPkByQueue:sum(packetBytes) 	0
attr interpolationmode  none
attr source  dropPkByQueue
attr title  "packets dropped by queue, sum(packetBytes)"
scalar AODVVANET.vehicle[5].wlan.mac 	"number of received packets" 	0
scalar AODVVANET.vehicle[5].wlan.mac 	"number of collisions" 	4
scalar AODVVANET.vehicle[5].wlan.mac 	"number of internal collisions" 	0
scalar AODVVANET.vehicle[5].wlan.mac 	"number of retry for AC 0" 	0
scalar AODVVANET.vehicle[5].wlan.mac 	"sent and received bits" 	7440
scalar AODVVANET.vehicle[5].wlan.mac 	"sent packet within AC 0" 	0
scalar AODVVANET.vehicle[5].wlan.mac 	"sent in TXOP " 	0
scalar AODVVANET.vehicle[5].wlan.mac 	"sentWithoutRetry AC 0" 	0
scalar AODVVANET.vehicle[5].wlan.mac 	"numGivenUp AC 0" 	0
scalar AODVVANET.vehicle[5].wlan.mac 	"numDropped AC 0" 	0
scalar AODVVANET.vehicle[5].wlan.mac 	rcvdPkFromHL:count 	15
attr interpolationmode  none
attr source  packetReceivedFromUpper
attr title  "packets received from higher layer, count"
scalar AODVVANET.vehicle[5].wlan.mac 	rcvdPkFromHL:sum(packetBytes) 	930
attr interpolationmode  none
attr source  packetReceivedFromUpper
attr title  "packets received from higher layer, sum(packetBytes)"
scalar AODVVANET.vehicle[5].wlan.mac 	passedUpPk:count 	61
attr interpolationmode  none
attr source  packetSentToUpper
attr title  "packets passed to higher layer, count"
scalar AODVVANET.vehicle[5].wlan.mac 	passedUpPk:sum(packetBytes) 	3830
attr interpolationmode  none
attr source  packetSentToUpper
attr title  "packets passed to higher layer, sum(packetBytes)"
scalar AODVVANET.vehicle[5].wlan.mac 	rcvdPkFromLL:count 	79
attr interpolationmode  none
attr source  packetReceivedFromLower
attr title  "packets received from lower layer, count"
scalar AODVVANET.vehicle[5].wlan.mac 	rcvdPkFromLL:sum(packetBytes) 	4674
attr interpolationmode  none
attr source  packetReceivedFromLower
attr title  "packets received from lower layer, sum(packetBytes)"
scalar AODVVANET.vehicle[5].wlan.mac 	sentDownPk:count 	15
attr interpolationmode  none
attr source  packetSentToLower
attr title  "packets sent to lower layer, count"
scalar AODVVANET.vehicle[5].wlan.mac 	sentDownPk:sum(packetBytes) 	930
attr interpolationmode  none
attr source  packetSentToLower
attr title  "packets sent to lower layer, sum(packetBytes)"
scalar AODVVANET.vehicle[5].wlan.radio 	lossRate:min 	0.02
attr interpolationmode  backward-sample-hold
attr title  "packet loss rate, min"
scalar AODVVANET.vehicle[5].wlan.radio 	lossRate:max 	0.02
attr interpolationmode  backward-sample-hold
attr title  "packet loss rate, max"
scalar AODVVANET.vehicle[5].wlan.radio 	lossRate:timeavg 	0.02
attr interpolationmode  backward-sample-hold
attr title  "packet loss rate, timeavg"
statistic AODVVANET.vehicle[5].wlan.radio 	channelNo:histogram
field count 1
field mean 0
field stddev -nan
field sum 0
field sqrsum 0
field min 0
field max 0
attr interpolationmode  sample-hold
attr title  "channel no, histogram"
bin	-INF	0
bin	-0.5	0
bin	-0.46666666666667	0
bin	-0.43333333333333	0
bin	-0.4	0
bin	-0.36666666666667	0
bin	-0.33333333333333	0
bin	-0.3	0
bin	-0.26666666666667	0
bin	-0.23333333333333	0
bin	-0.2	0
bin	-0.16666666666667	0
bin	-0.13333333333333	0
bin	-0.1	0
bin	-0.066666666666667	0
bin	-0.033333333333333	0
bin	0	1
bin	0.033333333333333	0
bin	0.066666666666667	0
bin	0.1	0
bin	0.13333333333333	0
bin	0.16666666666667	0
bin	0.2	0
bin	0.23333333333333	0
bin	0.26666666666667	0
bin	0.3	0
bin	0.33333333333333	0
bin	0.36666666666667	0
bin	0.4	0
bin	0.43333333333333	0
bin	0.46666666666667	0
bin	0.5	0
scalar AODVVANET.vehicle[5].wlan.radio 	bitrate:min 	2000000
attr interpolationmode  sample-hold
attr title  "tx bitrate, min"
attr unit  bps
scalar AODVVANET.vehicle[5].wlan.radio 	bitrate:max 	2000000
attr interpolationmode  sample-hold
attr title  "tx bitrate, max"
attr unit  bps
scalar AODVVANET.vehicle[5].wlan.radio 	bitrate:timeavg 	2000000
attr interpolationmode  sample-hold
attr title  "tx bitrate, timeavg"
attr unit  bps
scalar AODVVANET.vehicle[5].wlan.radio 	radioState:count 	189
attr interpolationmode  sample-hold
attr title  "radio state (enum), count"
scalar AODVVANET.vehicle[5] 	statPacketReceived:count 	0
scalar AODVVANET.vehicle[5] 	statPacketSent:count 	2
scalar AODVVANET.vehicle[6].mobility 	startTime 	25
scalar AODVVANET.vehicle[6].mobility 	totalTime 	134
scalar AODVVANET.vehicle[6].mobility 	stopTime 	135
scalar AODVVANET.vehicle[6].mobility 	minSpeed 	4.1049386252233
scalar AODVVANET.vehicle[6].mobility 	maxSpeed 	13.999498154137
scalar AODVVANET.vehicle[6].mobility 	totalDistance 	1480.542900335
scalar AODVVANET.vehicle[6].udp 	droppedPkBadChecksum:count 	0
attr interpolationmode  none
attr title  "packets dropped (checksum error), count"
scalar AODVVANET.vehicle[6].udp 	droppedPkWrongPort:count 	0
attr interpolationmode  none
attr title  "packets dropped (wrong port), count"
scalar AODVVANET.vehicle[6].udp 	passedUpPk:count 	0
attr interpolationmode  none
attr title  "packets passed up, count"
scalar AODVVANET.vehicle[6].udp 	rcvdPk:count 	0
attr interpolationmode  none
attr source  rcvdPk
attr title  "packets received, count"
scalar AODVVANET.vehicle[6].udp 	rcvdPk:sum(packetBytes) 	0
attr interpolationmode  none
attr source  rcvdPk
attr title  "packets received, sum(packetBytes)"
scalar AODVVANET.vehicle[6].udp 	sentPk:count 	1
attr interpolationmode  none
attr source  sentPk
attr title  "packets sent, count"
scalar AODVVANET.vehicle[6].udp 	sentPk:sum(packetBytes) 	8
attr interpolationmode  none
attr source  sentPk
attr title  "packets sent, sum(packetBytes)"
scalar AODVVANET.vehicle[6].networkLayer.arp 	failedARPResolution:count 	0
attr title  "ARP failed resolutions, count"
scalar AODVVANET.vehicle[6].networkLayer.arp 	completedARPResolution:count 	0
attr title  "ARP completed resolutions, count"
scalar AODVVANET.vehicle[6].networkLayer.arp 	initiatedARPResolution:count 	0
attr title  "ARP initiated resolutions, count"
scalar AODVVANET.vehicle[6].networkLayer.arp 	sentReply:count 	0
attr title  "ARP replies sent, count"
scalar AODVVANET.vehicle[6].networkLayer.arp 	sentReq:count 	0
attr title  "ARP request sent, count"
scalar AODVVANET.vehicle[6].wlan.mgmt 	dataQueueLen:max 	0
attr interpolationmode  sample-hold
attr title  "data queue length, max"
scalar AODVVANET.vehicle[6].wlan.mgmt 	dataQueueLen:timeavg 	0
attr interpolationmode  sample-hold
attr title  "data queue length, timeavg"
scalar AODVVANET.vehicle[6].wlan.mgmt 	dropPkByQueue:count 	0
attr interpolationmode  none
attr source  dropPkByQueue
attr title  "packets dropped by queue, count"
scalar AODVVANET.vehicle[6].wlan.mgmt 	dropPkByQueue:sum(packetBytes) 	0
attr interpolationmode  none
attr source  dropPkByQueue
attr title  "packets dropped by queue, sum(packetBytes)"
scalar AODVVANET.vehicle[6].wlan.mac 	"number of received packets" 	0
scalar AODVVANET.vehicle[6].wlan.mac 	"number of collisions" 	8
scalar AODVVANET.vehicle[6].wlan.mac 	"number of internal collisions" 	0
scalar AODVVANET.vehicle[6].wlan.mac 	"number of retry for AC 0" 	0
scalar AODVVANET.vehicle[6].wlan.mac 	"sent and received bits" 	7936
scalar AODVVANET.vehicle[6].wlan.mac 	"sent packet within AC 0" 	0
scalar AODVVANET.vehicle[6].wlan.mac 	"sent in TXOP " 	0
scalar AODVVANET.vehicle[6].wlan.mac 	"sentWithoutRetry AC 0" 	0
scalar AODVVANET.vehicle[6].wlan.mac 	"numGivenUp AC 0" 	0
scalar AODVVANET.vehicle[6].wlan.mac 	"numDropped AC 0" 	0
scalar AODVVANET.vehicle[6].wlan.mac 	rcvdPkFromHL:count 	16
attr interpolationmode  none
attr source  packetReceivedFromUpper
attr title  "packets received from higher layer, count"
scalar AODVVANET.vehicle[6].wlan.mac 	rcvdPkFromHL:sum(packetBytes) 	992
attr interpolationmode  none
attr source  packetReceivedFromUpper
attr title  "packets received from higher layer, sum(packetBytes)"
scalar AODVVANET.vehicle[6].wlan.mac 	passedUpPk:count 	51
attr interpolationmode  none
attr source  packetSentToUpper
attr title  "packets passed to higher layer, count"
scalar AODVVANET.vehicle[6].wlan.mac 	passedUpPk:sum(packetBytes) 	3202
attr interpolationmode  none
attr source  packetSentToUpper
attr title  "packets passed to higher layer, sum(packetBytes)"
scalar AODVVANET.vehicle[6].wlan.mac 	rcvdPkFromLL:count 	86
attr interpolationmode  none
attr source  packetReceivedFromLower
attr title  "packets received from lower layer, count"
scalar AODVVANET.vehicle[6].wlan.mac 	rcvdPkFromLL:sum(packetBytes) 	4820
attr interpolationmode  none
attr source  packetReceivedFromLower
attr title  "packets received from lower layer, sum(packetBytes)"
scalar AODVVANET.vehicle[6].wlan.mac 	sentDownPk:count 	16
attr interpolationmode  none
attr source  packetSentToLower
attr title  "packets sent to lower layer, count"
scalar AODVVANET.vehicle[6].wlan.mac 	sentDownPk:sum(packetBytes) 	992
attr interpolationmode  none
attr source  packetSentToLower
attr title  "packets sent to lower layer, sum(packetBytes)"
scalar AODVVANET.vehicle[6].wlan.radio 	lossRate:min 	0.1
attr interpolationmode  backward-sample-hold
attr title  "packet loss rate, min"
scalar AODVVANET.vehicle[6].wlan.radio 	lossRate:max 	0.1
attr interpolationmode  backward-sample-hold
attr title  "packet loss rate, max"
scalar AODVVANET.vehicle[6].wlan.radio 	lossRate:timeavg 	0.1
attr interpolationmode  backward-sample-hold
attr title  "packet loss rate, timeavg"
statistic AODVVANET.vehicle[6].wlan.radio 	channelNo:histogram
field count 1
field mean 0
field stddev -nan
field sum 0
field sqrsum 0
field min 0
field max 0
attr interpolationmode  sample-hold
attr title  "channel no, histogram"
bin	-INF	0
bin	-0.5	0
bin	-0.46666666666667	0
bin	-0.43333333333333	0
bin	-0.4	0
bin	-0.36666666666667	0
bin	-0.33333333333333	0
bin	-0.3	0
bin	-0.26666666666667	0
bin	-0.23333333333333	0
bin	-0.2	0
bin	-0.16666666666667	0
bin	-0.13333333333333	0
bin	-0.1	0
bin	-0.066666666666667	0
bin	-0.033333333333333	0
bin	0	1
bin	0.033333333333333	0
bin	0.066666666666667	0
bin	0.1	0
bin	0.13333333333333	0
bin	0.16666666666667	0
bin	0.2	0
bin	0.23333333333333	0
bin	0.26666666666667	0
bin	0.3	0
bin	0.33333333333333	0
bin	0.36666666666667	0
bin	0.4	0
bin	0.43333333333333	0
bin	0.46666666666667	0
bin	0.5	0
scalar AODVVANET.vehicle[6].wlan.radio 	bitrate:min 	2000000
attr interpolationmode  sample-hold
attr title  "tx bitrate, min"
attr unit  bps
scalar AODVVANET.vehicle[6].wlan.radio 	bitrate:max 	2000000
attr interpolationmode  sample-hold
attr title  "tx bitrate, max"
attr unit  bps
scalar AODVVANET.vehicle[6].wlan.radio 	bitrate:timeavg 	2000000
attr interpolationmode  sample-hold
attr title  "tx bitrate, timeavg"
attr unit  bps
scalar AODVVANET.vehicle[6].wlan.radio 	radioState:count 	205
attr interpolationmode  sample-hold
attr title  "radio state (enum), count"
scalar AODVVANET.vehicle[6] 	statPacketReceived:count 	0
scalar AODVVANET.vehicle[6] 	statPacketSent:count 	2
scalar AODVVANET.vehicle[8].mobility 	startTime 	31
scalar AODVVANET.vehicle[8].mobility 	totalTime 	139
scalar AODVVANET.vehicle[8].mobility 	stopTime 	140
scalar AODVVANET.vehicle[8].mobility 	minSpeed 	3.9558416770938
scalar AODVVANET.vehicle[8].mobility 	maxSpeed 	13.999567791808
scalar AODVVANET.vehicle[8].mobility 	totalDistance 	1466.5626697487
scalar AODVVANET.vehicle[8].udp 	droppedPkBadChecksum:count 	0
attr interpolationmode  none
attr title  "packets dropped (checksum error), count"
scalar AODVVANET.vehicle[8].udp 	droppedPkWrongPort:count 	0
attr interpolationmode  none
attr title  "packets dropped (wrong port), count"
scalar AODVVANET.vehicle[8].udp 	passedUpPk:count 	0
attr interpolationmode  none
attr title  "packets passed up, count"
scalar AODVVANET.vehicle[8].udp 	rcvdPk:count 	0
attr interpolationmode  none
attr source  rcvdPk
attr title  "packets received, count"
scalar AODVVANET.vehicle[8].udp 	rcvdPk:sum(packetBytes) 	0
attr interpolationmode  none
attr source  rcvdPk
attr title  "packets received, sum(packetBytes)"
scalar AODVVANET.vehicle[8].udp 	sentPk:count 	1
attr interpolationmode  none
attr source  sentPk
attr title  "packets sent, count"
scalar AODVVANET.vehicle[8].udp 	sentPk:sum(packetBytes) 	8
attr interpolationmode  none
attr source  sentPk
attr title  "packets sent, sum(packetBytes)"
scalar AODVVANET.vehicle[8].networkLayer.arp 	failedARPResolution:count 	0
attr title  "ARP failed resolutions, count"
scalar AODVVANET.vehicle[8].networkLayer.arp 	completedARPResolution:count 	0
attr title  "ARP completed resolutions, count"
scalar AODVVANET.vehicle[8].networkLayer.arp 	initiatedARPResolution:count 	0
attr title  "ARP initiated resolutions, count"
scalar AODVVANET.vehicle[8].networkLayer.arp 	sentReply:count 	0
attr title  "ARP replies sent, count"
scalar AODVVANET.vehicle[8].networkLayer.arp 	sentReq:count 	0
attr title  "ARP request sent, count"
scalar AODVVANET.vehicle[8].wlan.mgmt 	dataQueueLen:max 	0
attr interpolationmode  sample-hold
attr title  "data queue length, max"
scalar AODVVANET.vehicle[8].wlan.mgmt 	dataQueueLen:timeavg 	0
attr interpolationmode  sample-hold
attr title  "data queue length, timeavg"
scalar AODVVANET.vehicle[8].wlan.mgmt 	dropPkByQueue:count 	0
attr interpolationmode  none
attr source  dropPkByQueue
attr title  "packets dropped by queue, count"
scalar AODVVANET.vehicle[8].wlan.mgmt 	dropPkByQueue:sum(packetBytes) 	0
attr interpolationmode  none
attr source  dropPkByQueue
attr title  "packets dropped by queue, sum(packetBytes)"
scalar AODVVANET.vehicle[8].wlan.mac 	"number of received packets" 	0
scalar AODVVANET.vehicle[8].wlan.mac 	"number of collisions" 	0
scalar AODVVANET.vehicle[8].wlan.mac 	"number of internal collisions" 	0
scalar AODVVANET.vehicle[8].wlan.mac 	"number of retry for AC 0" 	0
scalar AODVVANET.vehicle[8].wlan.mac 	"sent and received bits" 	7440
scalar AODVVANET.vehicle[8].wlan.mac 	"sent packet within AC 0" 	0
scalar AODVVANET.vehicle[8].wlan.mac 	"sent in TXOP " 	0
scalar AODVVANET.vehicle[8].wlan.mac 	"sentWithoutRetry AC 0" 	0
scalar AODVVANET.vehicle[8].wlan.mac 	"numGivenUp AC 0" 	0
scalar AODVVANET.vehicle[8].wlan.mac 	"numDropped AC 0" 	0
scalar AODVVANET.vehicle[8].wlan.mac 	rcvdPkFromHL:count 	15
attr interpolationmode  none
attr source  packetReceivedFromUpper
attr title  "packets received from higher layer, count"
scalar AODVVANET.vehicle[8].wlan.mac 	rcvdPkFromHL:sum(packetBytes) 	930
attr interpolationmode  none
attr source  packetReceivedFromUpper
attr title  "packets received from higher layer, sum(packetBytes)"
scalar AODVVANET.vehicle[8].wlan.mac 	passedUpPk:count 	20
attr interpolationmode  none
attr source  packetSentToUpper
attr title  "packets passed to higher layer, count"
scalar AODVVANET.vehicle[8].wlan.mac 	passedUpPk:sum(packetBytes) 	1248
attr interpolationmode  none
attr source  packetSentToUpper
attr title  "packets passed to higher layer, sum(packetBytes)"
scalar AODVVANET.vehicle[8].wlan.mac 	rcvdPkFromLL:count 	26
attr interpolationmode  none
attr source  packetReceivedFromLower
attr title  "packets received from lower layer, count"
scalar AODVVANET.vehicle[8].wlan.mac 	rcvdPkFromLL:sum(packetBytes) 	1492
attr interpolationmode  none
attr source  packetReceivedFromLower
attr title  "packets received from lower layer, sum(packetBytes)"
scalar AODVVANET.vehicle[8].wlan.mac 	sentDownPk:count 	15
attr interpolationmode  none
attr source  packetSentToLower
attr title  "packets sent to lower layer, count"
scalar AODVVANET.vehicle[8].wlan.mac 	sentDownPk:sum(packetBytes) 	930
attr interpolationmode  none
attr source  packetSentToLower
attr title  "packets sent to lower layer, sum(packetBytes)"
scalar AODVVANET.vehicle[8].wlan.radio 	lossRate:min 	-nan
attr interpolationmode  backward-sample-hold
attr title  "packet loss rate, min"
scalar AODVVANET.vehicle[8].wlan.radio 	lossRate:max 	-nan
attr interpolationmode  backward-sample-hold
attr title  "packet loss rate, max"
scalar AODVVANET.vehicle[8].wlan.radio 	lossRate:timeavg 	-nan
attr interpolationmode  backward-sample-hold
attr title  "packet loss rate, timeavg"
statistic AODVVANET.vehicle[8].wlan.radio 	channelNo:histogram
field count 1
field mean 0
field stddev -nan
field sum 0
field sqrsum 0
field min 0
field max 0
attr interpolationmode  sample-hold
attr title  "channel no, histogram"
bin	-INF	0
bin	-0.5	0
bin	-0.46666666666667	0
bin	-0.43333333333333	0
bin	-0.4	0
bin	-0.36666666666667	0
bin	-0.33333333333333	0
bin	-0.3	0
bin	-0.26666666666667	0
bin	-0.23333333333333	0
bin	-0.2	0
bin	-0.16666666666667	0
bin	-0.13333333333333	0
bin	-0.1	0
bin	-0.066666666666667	0
bin	-0.033333333333333	0
bin	0	1
bin	0.033333333333333	0
bin	0.066666666666667	0
bin	0.1	0
bin	0.13333333333333	0
bin	0.16666666666667	0
bin	0.2	0
bin	0.23333333333333	0
bin	0.26666666666667	0
bin	0.3	0
bin	0.33333333333333	0
bin	0.36666666666667	0
bin	0.4	0
bin	0.43333333333333	0
bin	0.46666666666667	0
bin	0.5	0
scalar AODVVANET.vehicle[8].wlan.radio 	bitrate:min 	2000000
attr interpolationmode  sample-hold
attr title  "tx bitrate, min"
attr unit  bps
scalar AODVVANET.vehicle[8].wlan.radio 	bitrate:max 	2000000
attr interpolationmode  sample-hold
attr title  "tx bitrate, max"
attr unit  bps
scalar AODVVANET.vehicle[8].wlan.radio 	bitrate:timeavg 	2000000
attr interpolationmode  sample-hold
attr title  "tx bitrate, timeavg"
attr unit  bps
scalar AODVVANET.vehicle[8].wlan.radio 	radioState:count 	83
attr interpolationmode  sample-hold
attr title  "radio state (enum), count"
scalar AODVVANET.vehicle[8] 	statPacketReceived:count 	0
scalar AODVVANET.vehicle[8] 	statPacketSent:count 	2
scalar AODVVANET.vehicle[0].mobility 	startTime 	8
scalar AODVVANET.vehicle[0].mobility 	totalTime 	148
scalar AODVVANET.vehicle[0].mobility 	stopTime 	149
scalar AODVVANET.vehicle[0].mobility 	minSpeed 	0
scalar AODVVANET.vehicle[0].mobility 	maxSpeed 	13.999944936424
scalar AODVVANET.vehicle[0].mobility 	totalDistance 	1471.6037823447
scalar AODVVANET.vehicle[0].udp 	droppedPkBadChecksum:count 	0
attr interpolationmode  none
attr title  "packets dropped (checksum error), count"
scalar AODVVANET.vehicle[0].udp 	droppedPkWrongPort:count 	0
attr interpolationmode  none
attr title  "packets dropped (wrong port), count"
scalar AODVVANET.vehicle[0].udp 	passedUpPk:count 	18
attr interpolationmode  none
attr title  "packets passed up, count"
scalar AODVVANET.vehicle[0].udp 	rcvdPk:count 	18
attr interpolationmode  none
attr source  rcvdPk
attr title  "packets received, count"
scalar AODVVANET.vehicle[0].udp 	rcvdPk:sum(packetBytes) 	144
attr interpolationmode  none
attr source  rcvdPk
attr title  "packets received, sum(packetBytes)"
scalar AODVVANET.vehicle[0].udp 	sentPk:count 	0
attr interpolationmode  none
attr source  sentPk
attr title  "packets sent, count"
scalar AODVVANET.vehicle[0].udp 	sentPk:sum(packetBytes) 	0
attr interpolationmode  none
attr source  sentPk
attr title  "packets sent, sum(packetBytes)"
scalar AODVVANET.vehicle[0].networkLayer.arp 	failedARPResolution:count 	6
attr title  "ARP failed resolutions, count"
scalar AODVVANET.vehicle[0].networkLayer.arp 	completedARPResolution:count 	28
attr title  "ARP completed resolutions, count"
scalar AODVVANET.vehicle[0].networkLayer.arp 	initiatedARPResolution:count 	15
attr title  "ARP initiated resolutions, count"
scalar AODVVANET.vehicle[0].networkLayer.arp 	sentReply:count 	0
attr title  "ARP replies sent, count"
scalar AODVVANET.vehicle[0].networkLayer.arp 	sentReq:count 	31
attr title  "ARP request sent, count"
scalar AODVVANET.vehicle[0].wlan.mgmt 	dataQueueLen:max 	0
attr interpolationmode  sample-hold
attr title  "data queue length, max"
scalar AODVVANET.vehicle[0].wlan.mgmt 	dataQueueLen:timeavg 	0
attr interpolationmode  sample-hold
attr title  "data queue length, timeavg"
scalar AODVVANET.vehicle[0].wlan.mgmt 	dropPkByQueue:count 	0
attr interpolationmode  none
attr source  dropPkByQueue
attr title  "packets dropped by queue, count"
scalar AODVVANET.vehicle[0].wlan.mgmt 	dropPkByQueue:sum(packetBytes) 	0
attr interpolationmode  none
attr source  dropPkByQueue
attr title  "packets dropped by queue, sum(packetBytes)"
scalar AODVVANET.vehicle[0].wlan.mac 	"number of received packets" 	28
scalar AODVVANET.vehicle[0].wlan.mac 	"number of collisions" 	6
scalar AODVVANET.vehicle[0].wlan.mac 	"number of internal collisions" 	0
scalar AODVVANET.vehicle[0].wlan.mac 	"number of retry for AC 0" 	5
scalar AODVVANET.vehicle[0].wlan.mac 	"sent and received bits" 	25792
scalar AODVVANET.vehicle[0].wlan.mac 	"sent packet within AC 0" 	17
scalar AODVVANET.vehicle[0].wlan.mac 	"sent in TXOP " 	0
scalar AODVVANET.vehicle[0].wlan.mac 	"sentWithoutRetry AC 0" 	13
scalar AODVVANET.vehicle[0].wlan.mac 	"numGivenUp AC 0" 	0
scalar AODVVANET.vehicle[0].wlan.mac 	"numDropped AC 0" 	0
scalar AODVVANET.vehicle[0].wlan.mac 	rcvdPkFromHL:count 	48
attr interpolationmode  none
attr source  packetReceivedFromUpper
attr title  "packets received from higher layer, count"
scalar AODVVANET.vehicle[0].wlan.mac 	rcvdPkFromHL:sum(packetBytes) 	3224
attr interpolationmode  none
attr source  packetReceivedFromUpper
attr title  "packets received from higher layer, sum(packetBytes)"
scalar AODVVANET.vehicle[0].wlan.mac 	passedUpPk:count 	120
attr interpolationmode  none
attr source  packetSentToUpper
attr title  "packets passed to higher layer, count"
scalar AODVVANET.vehicle[0].wlan.mac 	passedUpPk:sum(packetBytes) 	7808
attr interpolationmode  none
attr source  packetSentToUpper
attr title  "packets passed to higher layer, sum(packetBytes)"
scalar AODVVANET.vehicle[0].wlan.mac 	rcvdPkFromLL:count 	227
attr interpolationmode  none
attr source  packetReceivedFromLower
attr title  "packets received from lower layer, count"
scalar AODVVANET.vehicle[0].wlan.mac 	rcvdPkFromLL:sum(packetBytes) 	11794
attr interpolationmode  none
attr source  packetReceivedFromLower
attr title  "packets received from lower layer, sum(packetBytes)"
scalar AODVVANET.vehicle[0].wlan.mac 	sentDownPk:count 	81
attr interpolationmode  none
attr source  packetSentToLower
attr title  "packets sent to lower layer, count"
scalar AODVVANET.vehicle[0].wlan.mac 	sentDownPk:sum(packetBytes) 	3926
attr interpolationmode  none
attr source  packetSentToLower
attr title  "packets sent to lower layer, sum(packetBytes)"
scalar AODVVANET.vehicle[0].wlan.radio 	lossRate:min 	0
attr interpolationmode  backward-sample-hold
attr title  "packet loss rate, min"
scalar AODVVANET.vehicle[0].wlan.radio 	lossRate:max 	0.06
attr interpolationmode  backward-sample-hold
attr title  "packet loss rate, max"
scalar AODVVANET.vehicle[0].wlan.radio 	lossRate:timeavg 	0.039066470982429
attr interpolationmode  backward-sample-hold
attr title  "packet loss rate, timeavg"
statistic AODVVANET.vehicle[0].wlan.radio 	channelNo:histogram
field count 1
field mean 0
field stddev -nan
field sum 0
field sqrsum 0
field min 0
field max 0
attr interpolationmode  sample-hold
attr title  "channel no, histogram"
bin	-INF	0
bin	-0.5	0
bin	-0.46666666666667	0
bin	-0.43333333333333	0
bin	-0.4	0
bin	-0.36666666666667	0
bin	-0.33333333333333	0
bin	-0.3	0
bin	-0.26666666666667	0
bin	-0.23333333333333	0
bin	-0.2	0
bin	-0.16666666666667	0
bin	-0.13333333333333	0
bin	-0.1	0
bin	-0.066666666666667	0
bin	-0.033333333333333	0
bin	0	1
bin	0.033333333333333	0
bin	0.066666666666667	0
bin	0.1	0
bin	0.13333333333333	0
bin	0.16666666666667	0
bin	0.2	0
bin	0.23333333333333	0
bin	0.26666666666667	0
bin	0.3	0
bin	0.33333333333333	0
bin	0.36666666666667	0
bin	0.4	0
bin	0.43333333333333	0
bin	0.46666666666667	0
bin	0.5	0
scalar AODVVANET.vehicle[0].wlan.radio 	bitrate:min 	2000000
attr interpolationmode  sample-hold
attr title  "tx bitrate, min"
attr unit  bps
scalar AODVVANET.vehicle[0].wlan.radio 	bitrate:max 	2000000
attr interpolationmode  sample-hold
attr title  "tx bitrate, max"
attr unit  bps
scalar AODVVANET.vehicle[0].wlan.radio 	bitrate:timeavg 	2000000
attr interpolationmode  sample-hold
attr title  "tx bitrate, timeavg"
attr unit  bps
scalar AODVVANET.vehicle[0].wlan.radio 	radioState:count 	641
attr interpolationmode  sample-hold
attr title  "radio state (enum), count"
scalar AODVVANET.vehicle[0] 	statPacketReceived:count 	18
scalar AODVVANET.vehicle[0] 	statPacketSent:count 	2
scalar AODVVANET.vehicle[9].mobility 	startTime 	35
scalar AODVVANET.vehicle[9].mobility 	totalTime 	150
scalar AODVVANET.vehicle[9].mobility 	stopTime 	150.00622545904
scalar AODVVANET.vehicle[9].mobility 	minSpeed 	0.034962853997298
scalar AODVVANET.vehicle[9].mobility 	maxSpeed 	13.998073957516
scalar AODVVANET.vehicle[9].mobility 	totalDistance 	1474.873212314
scalar AODVVANET.vehicle[9].udp 	droppedPkBadChecksum:count 	0
attr interpolationmode  none
attr title  "packets dropped (checksum error), count"
scalar AODVVANET.vehicle[9].udp 	droppedPkWrongPort:count 	0
attr interpolationmode  none
attr title  "packets dropped (wrong port), count"
scalar AODVVANET.vehicle[9].udp 	passedUpPk:count 	0
attr interpolationmode  none
attr title  "packets passed up, count"
scalar AODVVANET.vehicle[9].udp 	rcvdPk:count 	0
attr interpolationmode  none
attr source  rcvdPk
attr title  "packets received, count"
scalar AODVVANET.vehicle[9].udp 	rcvdPk:sum(packetBytes) 	0
attr interpolationmode  none
attr source  rcvdPk
attr title  "packets received, sum(packetBytes)"
scalar AODVVANET.vehicle[9].udp 	sentPk:count 	0
attr interpolationmode  none
attr source  sentPk
attr title  "packets sent, count"
scalar AODVVANET.vehicle[9].udp 	sentPk:sum(packetBytes) 	0
attr interpolationmode  none
attr source  sentPk
attr title  "packets sent, sum(packetBytes)"
scalar AODVVANET.vehicle[9].networkLayer.arp 	failedARPResolution:count 	0
attr title  "ARP failed resolutions, count"
scalar AODVVANET.vehicle[9].networkLayer.arp 	completedARPResolution:count 	3
attr title  "ARP completed resolutions, count"
scalar AODVVANET.vehicle[9].networkLayer.arp 	initiatedARPResolution:count 	1
attr title  "ARP initiated resolutions, count"
scalar AODVVANET.vehicle[9].networkLayer.arp 	sentReply:count 	1
attr title  "ARP replies sent, count"
scalar AODVVANET.vehicle[9].networkLayer.arp 	sentReq:count 	1
attr title  "ARP request sent, count"
scalar AODVVANET.vehicle[9].wlan.mgmt 	dataQueueLen:max 	0
attr interpolationmode  sample-hold
attr title  "data queue length, max"
scalar AODVVANET.vehicle[9].wlan.mgmt 	dataQueueLen:timeavg 	0
attr interpolationmode  sample-hold
attr title  "data queue length, timeavg"
scalar AODVVANET.vehicle[9].wlan.mgmt 	dropPkByQueue:count 	0
attr interpolationmode  none
attr source  dropPkByQueue
attr title  "packets dropped by queue, count"
scalar AODVVANET.vehicle[9].wlan.mgmt 	dropPkByQueue:sum(packetBytes) 	0
attr interpolationmode  none
attr source  dropPkByQueue
attr title  "packets dropped by queue, sum(packetBytes)"
scalar AODVVANET.vehicle[9].wlan.mac 	"number of received packets" 	3
scalar AODVVANET.vehicle[9].wlan.mac 	"number of collisions" 	7
scalar AODVVANET.vehicle[9].wlan.mac 	"number of internal collisions" 	0
scalar AODVVANET.vehicle[9].wlan.mac 	"number of retry for AC 0" 	0
scalar AODVVANET.vehicle[9].wlan.mac 	"sent and received bits" 	11600
scalar AODVVANET.vehicle[9].wlan.mac 	"sent packet within AC 0" 	3
scalar AODVVANET.vehicle[9].wlan.mac 	"sent in TXOP " 	0
scalar AODVVANET.vehicle[9].wlan.mac 	"sentWithoutRetry AC 0" 	3
scalar AODVVANET.vehicle[9].wlan.mac 	"numGivenUp AC 0" 	0
scalar AODVVANET.vehicle[9].wlan.mac 	"numDropped AC 0" 	0
scalar AODVVANET.vehicle[9].wlan.mac 	rcvdPkFromHL:count 	23
attr interpolationmode  none
attr source  packetReceivedFromUpper
attr title  "packets received from higher layer, count"
scalar AODVVANET.vehicle[9].wlan.mac 	rcvdPkFromHL:sum(packetBytes) 	1450
attr interpolationmode  none
attr source  packetReceivedFromUpper
attr title  "packets received from higher layer, sum(packetBytes)"
scalar AODVVANET.vehicle[9].wlan.mac 	passedUpPk:count 	93
attr interpolationmode  none
attr source  packetSentToUpper
attr title  "packets passed to higher layer, count"
scalar AODVVANET.vehicle[9].wlan.mac 	passedUpPk:sum(packetBytes) 	5910
attr interpolationmode  none
attr source  packetSentToUpper
attr title  "packets passed to higher layer, sum(packetBytes)"
scalar AODVVANET.vehicle[9].wlan.mac 	rcvdPkFromLL:count 	179
attr interpolationmode  none
attr source  packetReceivedFromLower
attr title  "packets received from lower layer, count"
scalar AODVVANET.vehicle[9].wlan.mac 	rcvdPkFromLL:sum(packetBytes) 	9618
attr interpolationmode  none
attr source  packetReceivedFromLower
attr title  "packets received from lower layer, sum(packetBytes)"
scalar AODVVANET.vehicle[9].wlan.mac 	sentDownPk:count 	26
attr interpolationmode  none
attr source  packetSentToLower
attr title  "packets sent to lower layer, count"
scalar AODVVANET.vehicle[9].wlan.mac 	sentDownPk:sum(packetBytes) 	1492
attr interpolationmode  none
attr source  packetSentToLower
attr title  "packets sent to lower layer, sum(packetBytes)"
scalar AODVVANET.vehicle[9].wlan.radio 	lossRate:min 	0
attr interpolationmode  backward-sample-hold
attr title  "packet loss rate, min"
scalar AODVVANET.vehicle[9].wlan.radio 	lossRate:max 	0.1
attr interpolationmode  backward-sample-hold
attr title  "packet loss rate, max"
scalar AODVVANET.vehicle[9].wlan.radio 	lossRate:timeavg 	0.061762473958666
attr interpolationmode  backward-sample-hold
attr title  "packet loss rate, timeavg"
statistic AODVVANET.vehicle[9].wlan.radio 	channelNo:histogram
field count 1
field mean 0
field stddev -nan
field sum 0
field sqrsum 0
field min 0
field max 0
attr interpolationmode  sample-hold
attr title  "channel no, histogram"
bin	-INF	0
bin	-0.5	0
bin	-0.46666666666667	0
bin	-0.43333333333333	0
bin	-0.4	0
bin	-0.36666666666667	0
bin	-0.33333333333333	0
bin	-0.3	0
bin	-0.26666666666667	0
bin	-0.23333333333333	0
bin	-0.2	0
bin	-0.16666666666667	0
bin	-0.13333333333333	0
bin	-0.1	0
bin	-0.066666666666667	0
bin	-0.033333333333333	0
bin	0	1
bin	0.033333333333333	0
bin	0.066666666666667	0
bin	0.1	0
bin	0.13333333333333	0
bin	0.16666666666667	0
bin	0.2	0
bin	0.23333333333333	0
bin	0.26666666666667	0
bin	0.3	0
bin	0.33333333333333	0
bin	0.36666666666667	0
bin	0.4	0
bin	0.43333333333333	0
bin	0.46666666666667	0
bin	0.5	0
scalar AODVVANET.vehicle[9].wlan.radio 	bitrate:min 	2000000
attr interpolationmode  sample-hold
attr title  "tx bitrate, min"
attr unit  bps
scalar AODVVANET.vehicle[9].wlan.radio 	bitrate:max 	2000000
attr interpolationmode  sample-hold
attr title  "tx bitrate, max"
attr unit  bps
scalar AODVVANET.vehicle[9].wlan.radio 	bitrate:timeavg 	2000000
attr interpolationmode  sample-hold
attr title  "tx bitrate, timeavg"
attr unit  bps
scalar AODVVANET.vehicle[9].wlan.radio 	radioState:count 	412
attr interpolationmode  sample-hold
attr title  "radio state (enum), count"
scalar AODVVANET.vehicle[9] 	statPacketReceived:count 	0
scalar AODVVANET.vehicle[9] 	statPacketSent:count 	2
scalar AODVVANET.vehicle[27].mobility 	startTime 	118
scalar AODVVANET.vehicle[27].mobility 	totalTime 	150
scalar AODVVANET.vehicle[27].mobility 	stopTime 	150.00622545904
scalar AODVVANET.vehicle[27].mobility 	minSpeed 	13.877273896807
scalar AODVVANET.vehicle[27].mobility 	maxSpeed 	13.992128709478
scalar AODVVANET.vehicle[27].mobility 	totalDistance 	445.94654888481
scalar AODVVANET.vehicle[27].udp 	droppedPkBadChecksum:count 	0
attr interpolationmode  none
attr title  "packets dropped (checksum error), count"
scalar AODVVANET.vehicle[27].udp 	droppedPkWrongPort:count 	0
attr interpolationmode  none
attr title  "packets dropped (wrong port), count"
scalar AODVVANET.vehicle[27].udp 	passedUpPk:count 	0
attr interpolationmode  none
attr title  "packets passed up, count"
scalar AODVVANET.vehicle[27].udp 	rcvdPk:count 	0
attr interpolationmode  none
attr source  rcvdPk
attr title  "packets received, count"
scalar AODVVANET.vehicle[27].udp 	rcvdPk:sum(packetBytes) 	0
attr interpolationmode  none
attr source  rcvdPk
attr title  "packets received, sum(packetBytes)"
scalar AODVVANET.vehicle[27].udp 	sentPk:count 	0
attr interpolationmode  none
attr source  sentPk
attr title  "packets sent, count"
scalar AODVVANET.vehicle[27].udp 	sentPk:sum(packetBytes) 	0
attr interpolationmode  none
attr source  sentPk
attr title  "packets sent, sum(packetBytes)"
scalar AODVVANET.vehicle[27].networkLayer.arp 	failedARPResolution:count 	0
attr title  "ARP failed resolutions, count"
scalar AODVVANET.vehicle[27].networkLayer.arp 	completedARPResolution:count 	0
attr title  "ARP completed resolutions, count"
scalar AODVVANET.vehicle[27].networkLayer.arp 	initiatedARPResolution:count 	0
attr title  "ARP initiated resolutions, count"
scalar AODVVANET.vehicle[27].networkLayer.arp 	sentReply:count 	0
attr title  "ARP replies sent, count"
scalar AODVVANET.vehicle[27].networkLayer.arp 	sentReq:count 	0
attr title  "ARP request sent, count"
scalar AODVVANET.vehicle[27].wlan.mgmt 	dataQueueLen:max 	0
attr interpolationmode  sample-hold
attr title  "data queue length, max"
scalar AODVVANET.vehicle[27].wlan.mgmt 	dataQueueLen:timeavg 	0
attr interpolationmode  sample-hold
attr title  "data queue length, timeavg"
scalar AODVVANET.vehicle[27].wlan.mgmt 	dropPkByQueue:count 	0
attr interpolationmode  none
attr source  dropPkByQueue
attr title  "packets dropped by queue, count"
scalar AODVVANET.vehicle[27].wlan.mgmt 	dropPkByQueue:sum(packetBytes) 	0
attr interpolationmode  none
attr source  dropPkByQueue
attr title  "packets dropped by queue, sum(packetBytes)"
scalar AODVVANET.vehicle[27].wlan.mac 	"number of received packets" 	0
scalar AODVVANET.vehicle[27].wlan.mac 	"number of collisions" 	0
scalar AODVVANET.vehicle[27].wlan.mac 	"number of internal collisions" 	0
scalar AODVVANET.vehicle[27].wlan.mac 	"number of retry for AC 0" 	0
scalar AODVVANET.vehicle[27].wlan.mac 	"sent and received bits" 	2480
scalar AODVVANET.vehicle[27].wlan.mac 	"sent packet within AC 0" 	0
scalar AODVVANET.vehicle[27].wlan.mac 	"sent in TXOP " 	0
scalar AODVVANET.vehicle[27].wlan.mac 	"sentWithoutRetry AC 0" 	0
scalar AODVVANET.vehicle[27].wlan.mac 	"numGivenUp AC 0" 	0
scalar AODVVANET.vehicle[27].wlan.mac 	"numDropped AC 0" 	0
scalar AODVVANET.vehicle[27].wlan.mac 	rcvdPkFromHL:count 	5
attr interpolationmode  none
attr source  packetReceivedFromUpper
attr title  "packets received from higher layer, count"
scalar AODVVANET.vehicle[27].wlan.mac 	rcvdPkFromHL:sum(packetBytes) 	310
attr interpolationmode  none
attr source  packetReceivedFromUpper
attr title  "packets received from higher layer, sum(packetBytes)"
scalar AODVVANET.vehicle[27].wlan.mac 	passedUpPk:count 	23
attr interpolationmode  none
attr source  packetSentToUpper
attr title  "packets passed to higher layer, count"
scalar AODVVANET.vehicle[27].wlan.mac 	passedUpPk:sum(packetBytes) 	1434
attr interpolationmode  none
attr source  packetSentToUpper
attr title  "packets passed to higher layer, sum(packetBytes)"
scalar AODVVANET.vehicle[27].wlan.mac 	rcvdPkFromLL:count 	37
attr interpolationmode  none
attr source  packetReceivedFromLower
attr title  "packets received from lower layer, count"
scalar AODVVANET.vehicle[27].wlan.mac 	rcvdPkFromLL:sum(packetBytes) 	1942
attr interpolationmode  none
attr source  packetReceivedFromLower
attr title  "packets received from lower layer, sum(packetBytes)"
scalar AODVVANET.vehicle[27].wlan.mac 	sentDownPk:count 	5
attr interpolationmode  none
attr source  packetSentToLower
attr title  "packets sent to lower layer, count"
scalar AODVVANET.vehicle[27].wlan.mac 	sentDownPk:sum(packetBytes) 	310
attr interpolationmode  none
attr source  packetSentToLower
attr title  "packets sent to lower layer, sum(packetBytes)"
scalar AODVVANET.vehicle[27].wlan.radio 	lossRate:min 	-nan
attr interpolationmode  backward-sample-hold
attr title  "packet loss rate, min"
scalar AODVVANET.vehicle[27].wlan.radio 	lossRate:max 	-nan
attr interpolationmode  backward-sample-hold
attr title  "packet loss rate, max"
scalar AODVVANET.vehicle[27].wlan.radio 	lossRate:timeavg 	-nan
attr interpolationmode  backward-sample-hold
attr title  "packet loss rate, timeavg"
statistic AODVVANET.vehicle[27].wlan.radio 	channelNo:histogram
field count 1
field mean 0
field stddev -nan
field sum 0
field sqrsum 0
field min 0
field max 0
attr interpolationmode  sample-hold
attr title  "channel no, histogram"
bin	-INF	0
bin	-0.5	0
bin	-0.46666666666667	0
bin	-0.43333333333333	0
bin	-0.4	0
bin	-0.36666666666667	0
bin	-0.33333333333333	0
bin	-0.3	0
bin	-0.26666666666667	0
bin	-0.23333333333333	0
bin	-0.2	0
bin	-0.16666666666667	0
bin	-0.13333333333333	0
bin	-0.1	0
bin	-0.066666666666667	0
bin	-0.033333333333333	0
bin	0	1
bin	0.033333333333333	0
bin	0.066666666666667	0
bin	0.1	0
bin	0.13333333333333	0
bin	0.16666666666667	0
bin	0.2	0
bin	0.23333333333333	0
bin	0.26666666666667	0
bin	0.3	0
bin	0.33333333333333	0
bin	0.36666666666667	0
bin	0.4	0
bin	0.43333333333333	0
bin	0.46666666666667	0
bin	0.5	0
scalar AODVVANET.vehicle[27].wlan.radio 	bitrate:min 	2000000
attr interpolationmode  sample-hold
attr title  "tx bitrate, min"
attr unit  bps
scalar AODVVANET.vehicle[27].wlan.radio 	bitrate:max 	2000000
attr interpolationmode  sample-hold
attr title  "tx bitrate, max"
attr unit  bps
scalar AODVVANET.vehicle[27].wlan.radio 	bitrate:timeavg 	2000000
attr interpolationmode  sample-hold
attr title  "tx bitrate, timeavg"
attr unit  bps
scalar AODVVANET.vehicle[27].wlan.radio 	radioState:count 	85
attr interpolationmode  sample-hold
attr title  "radio state (enum), count"
scalar AODVVANET.vehicle[27] 	statPacketReceived:count 	0
scalar AODVVANET.vehicle[27] 	statPacketSent:count 	2
scalar AODVVANET.vehicle[11].mobility 	startTime 	45
scalar AODVVANET.vehicle[11].mobility 	totalTime 	150
scalar AODVVANET.vehicle[11].mobility 	stopTime 	150.00622545904
scalar AODVVANET.vehicle[11].mobility 	minSpeed 	4.0680781253972
scalar AODVVANET.vehicle[11].mobility 	maxSpeed 	13.994806852757
scalar AODVVANET.vehicle[11].mobility 	totalDistance 	1425.5971429577
scalar AODVVANET.vehicle[11].udp 	droppedPkBadChecksum:count 	0
attr interpolationmode  none
attr title  "packets dropped (checksum error), count"
scalar AODVVANET.vehicle[11].udp 	droppedPkWrongPort:count 	0
attr interpolationmode  none
attr title  "packets dropped (wrong port), count"
scalar AODVVANET.vehicle[11].udp 	passedUpPk:count 	0
attr interpolationmode  none
attr title  "packets passed up, count"
scalar AODVVANET.vehicle[11].udp 	rcvdPk:count 	0
attr interpolationmode  none
attr source  rcvdPk
attr title  "packets received, count"
scalar AODVVANET.vehicle[11].udp 	rcvdPk:sum(packetBytes) 	0
attr interpolationmode  none
attr source  rcvdPk
attr title  "packets received, sum(packetBytes)"
scalar AODVVANET.vehicle[11].udp 	sentPk:count 	1
attr interpolationmode  none
attr source  sentPk
attr title  "packets sent, count"
scalar AODVVANET.vehicle[11].udp 	sentPk:sum(packetBytes) 	8
attr interpolationmode  none
attr source  sentPk
attr title  "packets sent, sum(packetBytes)"
scalar AODVVANET.vehicle[11].networkLayer.arp 	failedARPResolution:count 	0
attr title  "ARP failed resolutions, count"
scalar AODVVANET.vehicle[11].networkLayer.arp 	completedARPResolution:count 	0
attr title  "ARP completed resolutions, count"
scalar AODVVANET.vehicle[11].networkLayer.arp 	initiatedARPResolution:count 	0
attr title  "ARP initiated resolutions, count"
scalar AODVVANET.vehicle[11].networkLayer.arp 	sentReply:count 	0
attr title  "ARP replies sent, count"
scalar AODVVANET.vehicle[11].networkLayer.arp 	sentReq:count 	0
attr title  "ARP request sent, count"
scalar AODVVANET.vehicle[11].wlan.mgmt 	dataQueueLen:max 	0
attr interpolationmode  sample-hold
attr title  "data queue length, max"
scalar AODVVANET.vehicle[11].wlan.mgmt 	dataQueueLen:timeavg 	0
attr interpolationmode  sample-hold
attr title  "data queue length, timeavg"
scalar AODVVANET.vehicle[11].wlan.mgmt 	dropPkByQueue:count 	0
attr interpolationmode  none
attr source  dropPkByQueue
attr title  "packets dropped by queue, count"
scalar AODVVANET.vehicle[11].wlan.mgmt 	dropPkByQueue:sum(packetBytes) 	0
attr interpolationmode  none
attr source  dropPkByQueue
attr title  "packets dropped by queue, sum(packetBytes)"
scalar AODVVANET.vehicle[11].wlan.mac 	"number of received packets" 	0
scalar AODVVANET.vehicle[11].wlan.mac 	"number of collisions" 	0
scalar AODVVANET.vehicle[11].wlan.mac 	"number of internal collisions" 	0
scalar AODVVANET.vehicle[11].wlan.mac 	"number of retry for AC 0" 	0
scalar AODVVANET.vehicle[11].wlan.mac 	"sent and received bits" 	5456
scalar AODVVANET.vehicle[11].wlan.mac 	"sent packet within AC 0" 	0
scalar AODVVANET.vehicle[11].wlan.mac 	"sent in TXOP " 	0
scalar AODVVANET.vehicle[11].wlan.mac 	"sentWithoutRetry AC 0" 	0
scalar AODVVANET.vehicle[11].wlan.mac 	"numGivenUp AC 0" 	0
scalar AODVVANET.vehicle[11].wlan.mac 	"numDropped AC 0" 	0
scalar AODVVANET.vehicle[11].wlan.mac 	rcvdPkFromHL:count 	11
attr interpolationmode  none
attr source  packetReceivedFromUpper
attr title  "packets received from higher layer, count"
scalar AODVVANET.vehicle[11].wlan.mac 	rcvdPkFromHL:sum(packetBytes) 	682
attr interpolationmode  none
attr source  packetReceivedFromUpper
attr title  "packets received from higher layer, sum(packetBytes)"
scalar AODVVANET.vehicle[11].wlan.mac 	passedUpPk:count 	25
attr interpolationmode  none
attr source  packetSentToUpper
attr title  "packets passed to higher layer, count"
scalar AODVVANET.vehicle[11].wlan.mac 	passedUpPk:sum(packetBytes) 	1558
attr interpolationmode  none
attr source  packetSentToUpper
attr title  "packets passed to higher layer, sum(packetBytes)"
scalar AODVVANET.vehicle[11].wlan.mac 	rcvdPkFromLL:count 	34
attr interpolationmode  none
attr source  packetReceivedFromLower
attr title  "packets received from lower layer, count"
scalar AODVVANET.vehicle[11].wlan.mac 	rcvdPkFromLL:sum(packetBytes) 	1956
attr interpolationmode  none
attr source  packetReceivedFromLower
attr title  "packets received from lower layer, sum(packetBytes)"
scalar AODVVANET.vehicle[11].wlan.mac 	sentDownPk:count 	11
attr interpolationmode  none
attr source  packetSentToLower
attr title  "packets sent to lower layer, count"
scalar AODVVANET.vehicle[11].wlan.mac 	sentDownPk:sum(packetBytes) 	682
attr interpolationmode  none
attr source  packetSentToLower
attr title  "packets sent to lower layer, sum(packetBytes)"
scalar AODVVANET.vehicle[11].wlan.radio 	lossRate:min 	-nan
attr interpolationmode  backward-sample-hold
attr title  "packet loss rate, min"
scalar AODVVANET.vehicle[11].wlan.radio 	lossRate:max 	-nan
attr interpolationmode  backward-sample-hold
attr title  "packet loss rate, max"
scalar AODVVANET.vehicle[11].wlan.radio 	lossRate:timeavg 	-nan
attr interpolationmode  backward-sample-hold
attr title  "packet loss rate, timeavg"
statistic AODVVANET.vehicle[11].wlan.radio 	channelNo:histogram
field count 1
field mean 0
field stddev -nan
field sum 0
field sqrsum 0
field min 0
field max 0
attr interpolationmode  sample-hold
attr title  "channel no, histogram"
bin	-INF	0
bin	-0.5	0
bin	-0.46666666666667	0
bin	-0.43333333333333	0
bin	-0.4	0
bin	-0.36666666666667	0
bin	-0.33333333333333	0
bin	-0.3	0
bin	-0.26666666666667	0
bin	-0.23333333333333	0
bin	-0.2	0
bin	-0.16666666666667	0
bin	-0.13333333333333	0
bin	-0.1	0
bin	-0.066666666666667	0
bin	-0.033333333333333	0
bin	0	1
bin	0.033333333333333	0
bin	0.066666666666667	0
bin	0.1	0
bin	0.13333333333333	0
bin	0.16666666666667	0
bin	0.2	0
bin	0.23333333333333	0
bin	0.26666666666667	0
bin	0.3	0
bin	0.33333333333333	0
bin	0.36666666666667	0
bin	0.4	0
bin	0.43333333333333	0
bin	0.46666666666667	0
bin	0.5	0
scalar AODVVANET.vehicle[11].wlan.radio 	bitrate:min 	2000000
attr interpolationmode  sample-hold
attr title  "tx bitrate, min"
attr unit  bps
scalar AODVVANET.vehicle[11].wlan.radio 	bitrate:max 	2000000
attr interpolationmode  sample-hold
attr title  "tx bitrate, max"
attr unit  bps
scalar AODVVANET.vehicle[11].wlan.radio 	bitrate:timeavg 	2000000
attr interpolationmode  sample-hold
attr title  "tx bitrate, timeavg"
attr unit  bps
scalar AODVVANET.vehicle[11].wlan.radio 	radioState:count 	91
attr interpolationmode  sample-hold
attr title  "radio state (enum), count"
scalar AODVVANET.vehicle[11] 	statPacketReceived:count 	0
scalar AODVVANET.vehicle[11] 	statPacketSent:count 	2
scalar AODVVANET.vehicle[28].mobility 	startTime 	120
scalar AODVVANET.vehicle[28].mobility 	totalTime 	150
scalar AODVVANET.vehicle[28].mobility 	stopTime 	150.00622545904
scalar AODVVANET.vehicle[28].mobility 	minSpeed 	13.875132712461
scalar AODVVANET.vehicle[28].mobility 	maxSpeed 	13.999036190065
scalar AODVVANET.vehicle[28].mobility 	totalDistance 	418.02115434588
scalar AODVVANET.vehicle[28].udp 	droppedPkBadChecksum:count 	0
attr interpolationmode  none
attr title  "packets dropped (checksum error), count"
scalar AODVVANET.vehicle[28].udp 	droppedPkWrongPort:count 	0
attr interpolationmode  none
attr title  "packets dropped (wrong port), count"
scalar AODVVANET.vehicle[28].udp 	passedUpPk:count 	0
attr interpolationmode  none
attr title  "packets passed up, count"
scalar AODVVANET.vehicle[28].udp 	rcvdPk:count 	0
attr interpolationmode  none
attr source  rcvdPk
attr title  "packets received, count"
scalar AODVVANET.vehicle[28].udp 	rcvdPk:sum(packetBytes) 	0
attr interpolationmode  none
attr source  rcvdPk
attr title  "packets received, sum(packetBytes)"
scalar AODVVANET.vehicle[28].udp 	sentPk:count 	0
attr interpolationmode  none
attr source  sentPk
attr title  "packets sent, count"
scalar AODVVANET.vehicle[28].udp 	sentPk:sum(packetBytes) 	0
attr interpolationmode  none
attr source  sentPk
attr title  "packets sent, sum(packetBytes)"
scalar AODVVANET.vehicle[28].networkLayer.arp 	failedARPResolution:count 	0
attr title  "ARP failed resolutions, count"
scalar AODVVANET.vehicle[28].networkLayer.arp 	completedARPResolution:count 	0
attr title  "ARP completed resolutions, count"
scalar AODVVANET.vehicle[28].networkLayer.arp 	initiatedARPResolution:count 	0
attr title  "ARP initiated resolutions, count"
scalar AODVVANET.vehicle[28].networkLayer.arp 	sentReply:count 	0
attr title  "ARP replies sent, count"
scalar AODVVANET.vehicle[28].networkLayer.arp 	sentReq:count 	0
attr title  "ARP request sent, count"
scalar AODVVANET.vehicle[28].wlan.mgmt 	dataQueueLen:max 	0
attr interpolationmode  sample-hold
attr title  "data queue length, max"
scalar AODVVANET.vehicle[28].wlan.mgmt 	dataQueueLen:timeavg 	0
attr interpolationmode  sample-hold
attr title  "data queue length, timeavg"
scalar AODVVANET.vehicle[28].wlan.mgmt 	dropPkByQueue:count 	0
attr interpolationmode  none
attr source  dropPkByQueue
attr title  "packets dropped by queue, count"
scalar AODVVANET.vehicle[28].wlan.mgmt 	dropPkByQueue:sum(packetBytes) 	0
attr interpolationmode  none
attr source  dropPkByQueue
attr title  "packets dropped by queue, sum(packetBytes)"
scalar AODVVANET.vehicle[28].wlan.mac 	"number of received packets" 	0
scalar AODVVANET.vehicle[28].wlan.mac 	"number of collisions" 	0
scalar AODVVANET.vehicle[28].wlan.mac 	"number of internal collisions" 	0
scalar AODVVANET.vehicle[28].wlan.mac 	"number of retry for AC 0" 	0
scalar AODVVANET.vehicle[28].wlan.mac 	"sent and received bits" 	2480
scalar AODVVANET.vehicle[28].wlan.mac 	"sent packet within AC 0" 	0
scalar AODVVANET.vehicle[28].wlan.mac 	"sent in TXOP " 	0
scalar AODVVANET.vehicle[28].wlan.mac 	"sentWithoutRetry AC 0" 	0
scalar AODVVANET.vehicle[28].wlan.mac 	"numGivenUp AC 0" 	0
scalar AODVVANET.vehicle[28].wlan.mac 	"numDropped AC 0" 	0
scalar AODVVANET.vehicle[28].wlan.mac 	rcvdPkFromHL:count 	5
attr interpolationmode  none
attr source  packetReceivedFromUpper
attr title  "packets received from higher layer, count"
scalar AODVVANET.vehicle[28].wlan.mac 	rcvdPkFromHL:sum(packetBytes) 	310
attr interpolationmode  none
attr source  packetReceivedFromUpper
attr title  "packets received from higher layer, sum(packetBytes)"
scalar AODVVANET.vehicle[28].wlan.mac 	passedUpPk:count 	22
attr interpolationmode  none
attr source  packetSentToUpper
attr title  "packets passed to higher layer, count"
scalar AODVVANET.vehicle[28].wlan.mac 	passedUpPk:sum(packetBytes) 	1372
attr interpolationmode  none
attr source  packetSentToUpper
attr title  "packets passed to higher layer, sum(packetBytes)"
scalar AODVVANET.vehicle[28].wlan.mac 	rcvdPkFromLL:count 	36
attr interpolationmode  none
attr source  packetReceivedFromLower
attr title  "packets received from lower layer, count"
scalar AODVVANET.vehicle[28].wlan.mac 	rcvdPkFromLL:sum(packetBytes) 	1880
attr interpolationmode  none
attr source  packetReceivedFromLower
attr title  "packets received from lower layer, sum(packetBytes)"
scalar AODVVANET.vehicle[28].wlan.mac 	sentDownPk:count 	5
attr interpolationmode  none
attr source  packetSentToLower
attr title  "packets sent to lower layer, count"
scalar AODVVANET.vehicle[28].wlan.mac 	sentDownPk:sum(packetBytes) 	310
attr interpolationmode  none
attr source  packetSentToLower
attr title  "packets sent to lower layer, sum(packetBytes)"
scalar AODVVANET.vehicle[28].wlan.radio 	lossRate:min 	-nan
attr interpolationmode  backward-sample-hold
attr title  "packet loss rate, min"
scalar AODVVANET.vehicle[28].wlan.radio 	lossRate:max 	-nan
attr interpolationmode  backward-sample-hold
attr title  "packet loss rate, max"
scalar AODVVANET.vehicle[28].wlan.radio 	lossRate:timeavg 	-nan
attr interpolationmode  backward-sample-hold
attr title  "packet loss rate, timeavg"
statistic AODVVANET.vehicle[28].wlan.radio 	channelNo:histogram
field count 1
field mean 0
field stddev -nan
field sum 0
field sqrsum 0
field min 0
field max 0
attr interpolationmode  sample-hold
attr title  "channel no, histogram"
bin	-INF	0
bin	-0.5	0
bin	-0.46666666666667	0
bin	-0.43333333333333	0
bin	-0.4	0
bin	-0.36666666666667	0
bin	-0.33333333333333	0
bin	-0.3	0
bin	-0.26666666666667	0
bin	-0.23333333333333	0
bin	-0.2	0
bin	-0.16666666666667	0
bin	-0.13333333333333	0
bin	-0.1	0
bin	-0.066666666666667	0
bin	-0.033333333333333	0
bin	0	1
bin	0.033333333333333	0
bin	0.066666666666667	0
bin	0.1	0
bin	0.13333333333333	0
bin	0.16666666666667	0
bin	0.2	0
bin	0.23333333333333	0
bin	0.26666666666667	0
bin	0.3	0
bin	0.33333333333333	0
bin	0.36666666666667	0
bin	0.4	0
bin	0.43333333333333	0
bin	0.46666666666667	0
bin	0.5	0
scalar AODVVANET.vehicle[28].wlan.radio 	bitrate:min 	2000000
attr interpolationmode  sample-hold
attr title  "tx bitrate, min"
attr unit  bps
scalar AODVVANET.vehicle[28].wlan.radio 	bitrate:max 	2000000
attr interpolationmode  sample-hold
attr title  "tx bitrate, max"
attr unit  bps
scalar AODVVANET.vehicle[28].wlan.radio 	bitrate:timeavg 	2000000
attr interpolationmode  sample-hold
[...]
scalar AODVVANET.vehicle[4].mobility 	startTime 	20
scalar AODVVANET.vehicle[4].mobility 	totalTime 	150
scalar AODVVANET.vehicle[4].mobility 	stopTime 	150.00622545904
scalar AODVVANET.vehicle[4].mobility 	minSpeed 	0
scalar AODVVANET.vehicle[4].mobility 	maxSpeed 	13.997971211271
scalar AODVVANET.vehicle[4].mobility 	totalDistance 	1566.6133716424
scalar AODVVANET.vehicle[4].udp 	droppedPkBadChecksum:count 	0
attr interpolationmode  none
attr title  "packets dropped (checksum error), count"
scalar AODVVANET.vehicle[4].udp 	droppedPkWrongPort:count 	0
attr interpolationmode  none
attr title  "packets dropped (wrong port), count"
scalar AODVVANET.vehicle[4].udp 	passedUpPk:count 	0
attr interpolationmode  none
attr title  "packets passed up, count"
scalar AODVVANET.vehicle[4].udp 	rcvdPk:count 	0
attr interpolationmode  none
attr source  rcvdPk
attr title  "packets received, count"
scalar AODVVANET.vehicle[4].udp 	rcvdPk:sum(packetBytes) 	0
attr interpolationmode  none
attr source  rcvdPk
attr title  "packets received, sum(packetBytes)"
scalar AODVVANET.vehicle[4].udp 	sentPk:count 	1
attr interpolationmode  none
attr source  sentPk
attr title  "packets sent, count"
scalar AODVVANET.vehicle[4].udp 	sentPk:sum(packetBytes) 	8
attr interpolationmode  none
attr source  sentPk
attr title  "packets sent, sum(packetBytes)"
scalar AODVVANET.vehicle[4].networkLayer.arp 	failedARPResolution:count 	3
attr title  "ARP failed resolutions, count"
scalar AODVVANET.vehicle[4].networkLayer.arp 	completedARPResolution:count 	14
attr title  "ARP completed resolutions, count"
scalar AODVVANET.vehicle[4].networkLayer.arp 	initiatedARPResolution:count 	5
attr title  "ARP initiated resolutions, count"
scalar AODVVANET.vehicle[4].networkLayer.arp 	sentReply:count 	1
attr title  "ARP replies sent, count"
scalar AODVVANET.vehicle[4].networkLayer.arp 	sentReq:count 	11
attr title  "ARP request sent, count"
scalar AODVVANET.vehicle[4].wlan.mgmt 	dataQueueLen:max 	0
attr interpolationmode  sample-hold
attr title  "data queue length, max"
scalar AODVVANET.vehicle[4].wlan.mgmt 	dataQueueLen:timeavg 	0
attr interpolationmode  sample-hold
attr title  "data queue length, timeavg"
scalar AODVVANET.vehicle[4].wlan.mgmt 	dropPkByQueue:count 	0
attr interpolationmode  none
attr source  dropPkByQueue
attr title  "packets dropped by queue, count"
scalar AODVVANET.vehicle[4].wlan.mgmt 	dropPkByQueue:sum(packetBytes) 	0
attr interpolationmode  none
attr source  dropPkByQueue
attr title  "packets dropped by queue, sum(packetBytes)"
scalar AODVVANET.vehicle[4].wlan.mac 	"number of received packets" 	7
scalar AODVVANET.vehicle[4].wlan.mac 	"number of collisions" 	8
scalar AODVVANET.vehicle[4].wlan.mac 	"number of internal collisions" 	0
scalar AODVVANET.vehicle[4].wlan.mac 	"number of retry for AC 0" 	2
scalar AODVVANET.vehicle[4].wlan.mac 	"sent and received bits" 	19312
scalar AODVVANET.vehicle[4].wlan.mac 	"sent packet within AC 0" 	7
scalar AODVVANET.vehicle[4].wlan.mac 	"sent in TXOP " 	0
scalar AODVVANET.vehicle[4].wlan.mac 	"sentWithoutRetry AC 0" 	5
scalar AODVVANET.vehicle[4].wlan.mac 	"numGivenUp AC 0" 	0
scalar AODVVANET.vehicle[4].wlan.mac 	"numDropped AC 0" 	0
scalar AODVVANET.vehicle[4].wlan.mac 	rcvdPkFromHL:count 	37
attr interpolationmode  none
attr source  packetReceivedFromUpper
attr title  "packets received from higher layer, count"
scalar AODVVANET.vehicle[4].wlan.mac 	rcvdPkFromHL:sum(packetBytes) 	2414
attr interpolationmode  none
attr source  packetReceivedFromUpper
attr title  "packets received from higher layer, sum(packetBytes)"
scalar AODVVANET.vehicle[4].wlan.mac 	passedUpPk:count 	110
attr interpolationmode  none
attr source  packetSentToUpper
attr title  "packets passed to higher layer, count"
scalar AODVVANET.vehicle[4].wlan.mac 	passedUpPk:sum(packetBytes) 	7020
attr interpolationmode  none
attr source  packetSentToUpper
attr title  "packets passed to higher layer, sum(packetBytes)"
scalar AODVVANET.vehicle[4].wlan.mac 	rcvdPkFromLL:count 	235
attr interpolationmode  none
attr source  packetReceivedFromLower
attr title  "packets received from lower layer, count"
scalar AODVVANET.vehicle[4].wlan.mac 	rcvdPkFromLL:sum(packetBytes) 	12258
attr interpolationmode  none
attr source  packetReceivedFromLower
attr title  "packets received from lower layer, sum(packetBytes)"
scalar AODVVANET.vehicle[4].wlan.mac 	sentDownPk:count 	46
attr interpolationmode  none
attr source  packetSentToLower
attr title  "packets sent to lower layer, count"
scalar AODVVANET.vehicle[4].wlan.mac 	sentDownPk:sum(packetBytes) 	2644
attr interpolationmode  none
attr source  packetSentToLower
attr title  "packets sent to lower layer, sum(packetBytes)"
scalar AODVVANET.vehicle[4].wlan.radio 	lossRate:min 	0
attr interpolationmode  backward-sample-hold
attr title  "packet loss rate, min"
scalar AODVVANET.vehicle[4].wlan.radio 	lossRate:max 	0.08
attr interpolationmode  backward-sample-hold
attr title  "packet loss rate, max"
scalar AODVVANET.vehicle[4].wlan.radio 	lossRate:timeavg 	0.038922949636442
attr interpolationmode  backward-sample-hold
attr title  "packet loss rate, timeavg"
statistic AODVVANET.vehicle[4].wlan.radio 	channelNo:histogram
field count 1
field mean 0
field stddev -nan
field sum 0
field sqrsum 0
field min 0
field max 0
attr interpolationmode  sample-hold
attr title  "channel no, histogram"
bin	-INF	0
bin	-0.5	0
bin	-0.46666666666667	0
bin	-0.43333333333333	0
bin	-0.4	0
bin	-0.36666666666667	0
bin	-0.33333333333333	0
bin	-0.3	0
bin	-0.26666666666667	0
bin	-0.23333333333333	0
bin	-0.2	0
bin	-0.16666666666667	0
bin	-0.13333333333333	0
bin	-0.1	0
bin	-0.066666666666667	0
bin	-0.033333333333333	0
bin	0	1
bin	0.033333333333333	0
bin	0.066666666666667	0
bin	0.1	0
bin	0.13333333333333	0
bin	0.16666666666667	0
bin	0.2	0
bin	0.23333333333333	0
bin	0.26666666666667	0
bin	0.3	0
bin	0.33333333333333	0
bin	0.36666666666667	0
bin	0.4	0
bin	0.43333333333333	0
bin	0.46666666666667	0
bin	0.5	0
scalar AODVVANET.vehicle[4].wlan.radio 	bitrate:min 	2000000
attr interpolationmode  sample-hold
attr title  "tx bitrate, min"
attr unit  bps
scalar AODVVANET.vehicle[4].wlan.radio 	bitrate:max 	2000000
attr interpolationmode  sample-hold
attr title  "tx bitrate, max"
attr unit  bps
scalar AODVVANET.vehicle[4].wlan.radio 	bitrate:timeavg 	2000000
attr interpolationmode  sample-hold
attr title  "tx bitrate, timeavg"
attr unit  bps
scalar AODVVANET.vehicle[4].wlan.radio 	radioState:count 	573
attr interpolationmode  sample-hold
attr title  "radio state (enum), count"
scalar AODVVANET.vehicle[4] 	statPacketReceived:count 	0
scalar AODVVANET.vehicle[4] 	statPacketSent:count 	2
scalar AODVVANET.vehicle[20].mobility 	startTime 	98
scalar AODVVANET.vehicle[20].mobility 	totalTime 	150
scalar AODVVANET.vehicle[20].mobility 	stopTime 	150.00622545904
scalar AODVVANET.vehicle[20].mobility 	minSpeed 	13.870438224771
scalar AODVVANET.vehicle[20].mobility 	maxSpeed 	13.996162275858
scalar AODVVANET.vehicle[20].mobility 	totalDistance 	724.63894199991
scalar AODVVANET.vehicle[20].udp 	droppedPkBadChecksum:count 	0
attr interpolationmode  none
attr title  "packets dropped (checksum error), count"
scalar AODVVANET.vehicle[20].udp 	droppedPkWrongPort:count 	0
attr interpolationmode  none
attr title  "packets dropped (wrong port), count"
scalar AODVVANET.vehicle[20].udp 	passedUpPk:count 	0
attr interpolationmode  none
attr title  "packets passed up, count"
scalar AODVVANET.vehicle[20].udp 	rcvdPk:count 	0
attr interpolationmode  none
attr source  rcvdPk
attr title  "packets received, count"
scalar AODVVANET.vehicle[20].udp 	rcvdPk:sum(packetBytes) 	0
attr interpolationmode  none
attr source  rcvdPk
attr title  "packets received, sum(packetBytes)"
scalar AODVVANET.vehicle[20].udp 	sentPk:count 	1
attr interpolationmode  none
attr source  sentPk
attr title  "packets sent, count"
scalar AODVVANET.vehicle[20].udp 	sentPk:sum(packetBytes) 	8
attr interpolationmode  none
attr source  sentPk
attr title  "packets sent, sum(packetBytes)"
scalar AODVVANET.vehicle[20].networkLayer.arp 	failedARPResolution:count 	0
attr title  "ARP failed resolutions, count"
scalar AODVVANET.vehicle[20].networkLayer.arp 	completedARPResolution:count 	1
attr title  "ARP completed resolutions, count"
scalar AODVVANET.vehicle[20].networkLayer.arp 	initiatedARPResolution:count 	0
attr title  "ARP initiated resolutions, count"
scalar AODVVANET.vehicle[20].networkLayer.arp 	sentReply:count 	1
attr title  "ARP replies sent, count"
scalar AODVVANET.vehicle[20].networkLayer.arp 	sentReq:count 	0
attr title  "ARP request sent, count"
scalar AODVVANET.vehicle[20].wlan.mgmt 	dataQueueLen:max 	0
attr interpolationmode  sample-hold
attr title  "data queue length, max"
scalar AODVVANET.vehicle[20].wlan.mgmt 	dataQueueLen:timeavg 	0
attr interpolationmode  sample-hold
attr title  "data queue length, timeavg"
scalar AODVVANET.vehicle[20].wlan.mgmt 	dropPkByQueue:count 	0
attr interpolationmode  none
attr source  dropPkByQueue
attr title  "packets dropped by queue, count"
scalar AODVVANET.vehicle[20].wlan.mgmt 	dropPkByQueue:sum(packetBytes) 	0
attr interpolationmode  none
attr source  dropPkByQueue
attr title  "packets dropped by queue, sum(packetBytes)"
scalar AODVVANET.vehicle[20].wlan.mac 	"number of received packets" 	1
scalar AODVVANET.vehicle[20].wlan.mac 	"number of collisions" 	4
scalar AODVVANET.vehicle[20].wlan.mac 	"number of internal collisions" 	0
scalar AODVVANET.vehicle[20].wlan.mac 	"number of retry for AC 0" 	0
scalar AODVVANET.vehicle[20].wlan.mac 	"sent and received bits" 	5088
scalar AODVVANET.vehicle[20].wlan.mac 	"sent packet within AC 0" 	2
scalar AODVVANET.vehicle[20].wlan.mac 	"sent in TXOP " 	0
scalar AODVVANET.vehicle[20].wlan.mac 	"sentWithoutRetry AC 0" 	2
scalar AODVVANET.vehicle[20].wlan.mac 	"numGivenUp AC 0" 	0
scalar AODVVANET.vehicle[20].wlan.mac 	"numDropped AC 0" 	0
scalar AODVVANET.vehicle[20].wlan.mac 	rcvdPkFromHL:count 	10
attr interpolationmode  none
attr source  packetReceivedFromUpper
attr title  "packets received from higher layer, count"
scalar AODVVANET.vehicle[20].wlan.mac 	rcvdPkFromHL:sum(packetBytes) 	636
attr interpolationmode  none
attr source  packetReceivedFromUpper
attr title  "packets received from higher layer, sum(packetBytes)"
scalar AODVVANET.vehicle[20].wlan.mac 	passedUpPk:count 	46
attr interpolationmode  none
attr source  packetSentToUpper
attr title  "packets passed to higher layer, count"
scalar AODVVANET.vehicle[20].wlan.mac 	passedUpPk:sum(packetBytes) 	2868
attr interpolationmode  none
attr source  packetSentToUpper
attr title  "packets passed to higher layer, sum(packetBytes)"
scalar AODVVANET.vehicle[20].wlan.mac 	rcvdPkFromLL:count 	71
attr interpolationmode  none
attr source  packetReceivedFromLower
attr title  "packets received from lower layer, count"
scalar AODVVANET.vehicle[20].wlan.mac 	rcvdPkFromLL:sum(packetBytes) 	3890
attr interpolationmode  none
attr source  packetReceivedFromLower
attr title  "packets received from lower layer, sum(packetBytes)"
scalar AODVVANET.vehicle[20].wlan.mac 	sentDownPk:count 	11
attr interpolationmode  none
attr source  packetSentToLower
attr title  "packets sent to lower layer, count"
scalar AODVVANET.vehicle[20].wlan.mac 	sentDownPk:sum(packetBytes) 	650
attr interpolationmode  none
attr source  packetSentToLower
attr title  "packets sent to lower layer, sum(packetBytes)"
scalar AODVVANET.vehicle[20].wlan.radio 	lossRate:min 	0.04
attr interpolationmode  backward-sample-hold
attr title  "packet loss rate, min"
scalar AODVVANET.vehicle[20].wlan.radio 	lossRate:max 	0.04
attr interpolationmode  backward-sample-hold
attr title  "packet loss rate, max"
scalar AODVVANET.vehicle[20].wlan.radio 	lossRate:timeavg 	0.04
attr interpolationmode  backward-sample-hold
attr title  "packet loss rate, timeavg"
statistic AODVVANET.vehicle[20].wlan.radio 	channelNo:histogram
field count 1
field mean 0
field stddev -nan
field sum 0
field sqrsum 0
field min 0
field max 0
attr interpolationmode  sample-hold
attr title  "channel no, histogram"
bin	-INF	0
bin	-0.5	0
bin	-0.46666666666667	0
bin	-0.43333333333333	0
bin	-0.4	0
bin	-0.36666666666667	0
bin	-0.33333333333333	0
bin	-0.3	0
bin	-0.26666666666667	0
bin	-0.23333333333333	0
bin	-0.2	0
bin	-0.16666666666667	0
bin	-0.13333333333333	0
bin	-0.1	0
bin	-0.066666666666667	0
bin	-0.033333333333333	0
bin	0	1
bin	0.033333333333333	0
bin	0.066666666666667	0
bin	0.1	0
bin	0.13333333333333	0
bin	0.16666666666667	0
bin	0.2	0
bin	0.23333333333333	0
bin	0.26666666666667	0
bin	0.3	0
bin	0.33333333333333	0
bin	0.36666666666667	0
bin	0.4	0
bin	0.43333333333333	0
bin	0.46666666666667	0
bin	0.5	0
scalar AODVVANET.vehicle[20].wlan.radio 	bitrate:min 	2000000
attr interpolationmode  sample-hold
attr title  "tx bitrate, min"
attr unit  bps
scalar AODVVANET.vehicle[20].wlan.radio 	bitrate:max 	2000000
attr interpolationmode  sample-hold
attr title  "tx bitrate, max"
attr unit  bps
scalar AODVVANET.vehicle[20].wlan.radio 	bitrate:timeavg 	2000000
attr interpolationmode  sample-hold
attr title  "tx bitrate, timeavg"
attr unit  bps
scalar AODVVANET.vehicle[20].wlan.radio 	radioState:count 	166
attr interpolationmode  sample-hold
attr title  "radio state (enum), count"
scalar AODVVANET.vehicle[20] 	statPacketReceived:count 	0
scalar AODVVANET.vehicle[20] 	statPacketSent:count 	2
scalar AODVVANET.vehicle[7].mobility 	startTime 	27
scalar AODVVANET.vehicle[7].mobility 	totalTime 	150
scalar AODVVANET.vehicle[7].mobility 	stopTime 	150.00622545904
scalar AODVVANET.vehicle[7].mobility 	minSpeed 	3.8445905906458
scalar AODVVANET.vehicle[7].mobility 	maxSpeed 	13.995880187573
scalar AODVVANET.vehicle[7].mobility 	totalDistance 	1673.8921707159
scalar AODVVANET.vehicle[7].udp 	droppedPkBadChecksum:count 	0
attr interpolationmode  none
attr title  "packets dropped (checksum error), count"
scalar AODVVANET.vehicle[7].udp 	droppedPkWrongPort:count 	0
attr interpolationmode  none
attr title  "packets dropped (wrong port), count"
scalar AODVVANET.vehicle[7].udp 	passedUpPk:count 	0
attr interpolationmode  none
attr title  "packets passed up, count"
scalar AODVVANET.vehicle[7].udp 	rcvdPk:count 	0
attr interpolationmode  none
attr source  rcvdPk
attr title  "packets received, count"
scalar AODVVANET.vehicle[7].udp 	rcvdPk:sum(packetBytes) 	0
attr interpolationmode  none
attr source  rcvdPk
attr title  "packets received, sum(packetBytes)"
scalar AODVVANET.vehicle[7].udp 	sentPk:count 	1
attr interpolationmode  none
attr source  sentPk
attr title  "packets sent, count"
scalar AODVVANET.vehicle[7].udp 	sentPk:sum(packetBytes) 	8
attr interpolationmode  none
attr source  sentPk
attr title  "packets sent, sum(packetBytes)"
scalar AODVVANET.vehicle[7].networkLayer.arp 	failedARPResolution:count 	0
attr title  "ARP failed resolutions, count"
scalar AODVVANET.vehicle[7].networkLayer.arp 	completedARPResolution:count 	29
attr title  "ARP completed resolutions, count"
scalar AODVVANET.vehicle[7].networkLayer.arp 	initiatedARPResolution:count 	4
attr title  "ARP initiated resolutions, count"
scalar AODVVANET.vehicle[7].networkLayer.arp 	sentReply:count 	5
attr title  "ARP replies sent, count"
scalar AODVVANET.vehicle[7].networkLayer.arp 	sentReq:count 	4
attr title  "ARP request sent, count"
scalar AODVVANET.vehicle[7].wlan.mgmt 	dataQueueLen:max 	0
attr interpolationmode  sample-hold
attr title  "data queue length, max"
scalar AODVVANET.vehicle[7].wlan.mgmt 	dataQueueLen:timeavg 	0
attr interpolationmode  sample-hold
attr title  "data queue length, timeavg"
scalar AODVVANET.vehicle[7].wlan.mgmt 	dropPkByQueue:count 	0
attr interpolationmode  none
attr source  dropPkByQueue
attr title  "packets dropped by queue, count"
scalar AODVVANET.vehicle[7].wlan.mgmt 	dropPkByQueue:sum(packetBytes) 	0
attr interpolationmode  none
attr source  dropPkByQueue
attr title  "packets dropped by queue, sum(packetBytes)"
scalar AODVVANET.vehicle[7].wlan.mac 	"number of received packets" 	15
scalar AODVVANET.vehicle[7].wlan.mac 	"number of collisions" 	28
scalar AODVVANET.vehicle[7].wlan.mac 	"number of internal collisions" 	0
scalar AODVVANET.vehicle[7].wlan.mac 	"number of retry for AC 0" 	6
scalar AODVVANET.vehicle[7].wlan.mac 	"sent and received bits" 	21168
scalar AODVVANET.vehicle[7].wlan.mac 	"sent packet within AC 0" 	17
scalar AODVVANET.vehicle[7].wlan.mac 	"sent in TXOP " 	0
scalar AODVVANET.vehicle[7].wlan.mac 	"sentWithoutRetry AC 0" 	17
scalar AODVVANET.vehicle[7].wlan.mac 	"numGivenUp AC 0" 	1
scalar AODVVANET.vehicle[7].wlan.mac 	"numDropped AC 0" 	0
scalar AODVVANET.vehicle[7].wlan.mac 	rcvdPkFromHL:count 	42
attr interpolationmode  none
attr source  packetReceivedFromUpper
attr title  "packets received from higher layer, count"
scalar AODVVANET.vehicle[7].wlan.mac 	rcvdPkFromHL:sum(packetBytes) 	2716
attr interpolationmode  none
attr source  packetReceivedFromUpper
attr title  "packets received from higher layer, sum(packetBytes)"
scalar AODVVANET.vehicle[7].wlan.mac 	passedUpPk:count 	125
attr interpolationmode  none
attr source  packetSentToUpper
attr title  "packets passed to higher layer, count"
scalar AODVVANET.vehicle[7].wlan.mac 	passedUpPk:sum(packetBytes) 	8070
attr interpolationmode  none
attr source  packetSentToUpper
attr title  "packets passed to higher layer, sum(packetBytes)"
scalar AODVVANET.vehicle[7].wlan.mac 	rcvdPkFromLL:count 	324
attr interpolationmode  none
attr source  packetReceivedFromLower
attr title  "packets received from lower layer, count"
scalar AODVVANET.vehicle[7].wlan.mac 	rcvdPkFromLL:sum(packetBytes) 	16448
attr interpolationmode  none
attr source  packetReceivedFromLower
attr title  "packets received from lower layer, sum(packetBytes)"
scalar AODVVANET.vehicle[7].wlan.mac 	sentDownPk:count 	63
attr interpolationmode  none
attr source  packetSentToLower
attr title  "packets sent to lower layer, count"
scalar AODVVANET.vehicle[7].wlan.mac 	sentDownPk:sum(packetBytes) 	3346
attr interpolationmode  none
attr source  packetSentToLower
attr title  "packets sent to lower layer, sum(packetBytes)"
scalar AODVVANET.vehicle[7].wlan.radio 	lossRate:min 	0
attr interpolationmode  backward-sample-hold
attr title  "packet loss rate, min"
scalar AODVVANET.vehicle[7].wlan.radio 	lossRate:max 	0.18
attr interpolationmode  backward-sample-hold
attr title  "packet loss rate, max"
scalar AODVVANET.vehicle[7].wlan.radio 	lossRate:timeavg 	0.071096026006157
attr interpolationmode  backward-sample-hold
attr title  "packet loss rate, timeavg"
statistic AODVVANET.vehicle[7].wlan.radio 	channelNo:histogram
field count 1
field mean 0
field stddev -nan
field sum 0
field sqrsum 0
field min 0
field max 0
attr interpolationmode  sample-hold
attr title  "channel no, histogram"
bin	-INF	0
bin	-0.5	0
bin	-0.46666666666667	0
bin	-0.43333333333333	0
bin	-0.4	0
bin	-0.36666666666667	0
bin	-0.33333333333333	0
bin	-0.3	0
bin	-0.26666666666667	0
bin	-0.23333333333333	0
bin	-0.2	0
bin	-0.16666666666667	0
bin	-0.13333333333333	0
bin	-0.1	0
bin	-0.066666666666667	0
bin	-0.033333333333333	0
bin	0	1
bin	0.033333333333333	0
bin	0.066666666666667	0
bin	0.1	0
bin	0.13333333333333	0
bin	0.16666666666667	0
bin	0.2	0
bin	0.23333333333333	0
bin	0.26666666666667	0
bin	0.3	0
bin	0.33333333333333	0
bin	0.36666666666667	0
bin	0.4	0
bin	0.43333333333333	0
bin	0.46666666666667	0
bin	0.5	0
scalar AODVVANET.vehicle[7].wlan.radio 	bitrate:min 	2000000
attr interpolationmode  sample-hold
attr title  "tx bitrate, min"
attr unit  bps
scalar AODVVANET.vehicle[7].wlan.radio 	bitrate:max 	2000000
attr interpolationmode  sample-hold
attr title  "tx bitrate, max"
attr unit  bps
scalar AODVVANET.vehicle[7].wlan.radio 	bitrate:timeavg 	2000000
attr interpolationmode  sample-hold
attr title  "tx bitrate, timeavg"
attr unit  bps
scalar AODVVANET.vehicle[7].wlan.radio 	radioState:count 	765
attr interpolationmode  sample-hold
attr title  "radio state (enum), count"
scalar AODVVANET.vehicle[7] 	statPacketReceived:count 	0
scalar AODVVANET.vehicle[7] 	statPacketSent:count 	2
